
     RDKit          3D

 14  0  0  0  0  0  0  0  0  0999 V2000
  -17.4695   20.3556  -12.2864 O   0  0  0  0  0 15  0  0  0  0  0  0
  -18.3971   22.8107  -12.8354 O   0  0  0  0  0 15  0  0  0  0  0  0
  -17.2368   19.5794  -10.9237 C   0  0  0  0  0 15  0  0  0  0  0  0
  -15.2278   20.6623  -10.3500 O   0  0  0  0  0 15  0  0  0  0  0  0
  -17.1917   21.6492  -10.9705 C   0  0  0  0  0 15  0  0  0  0  0  0
  -15.5281   21.5296  -11.1312 O   0  0  0  0  0 15  0  0  0  0  0  0
  -13.9190   22.0289  -11.5918 O   0  0  0  0  0 15  0  0  0  0  0  0
  -16.4456   19.7429  -11.1779 C   0  0  0  0  0 15  0  0  0  0  0  0
  -17.2244   19.8391  -11.4618 O   0  0  0  0  0 15  0  0  0  0  0  0
  -15.6611   18.2309  -10.5028 O   0  0  0  0  0 15  0  0  0  0  0  0
  -14.9682   19.9620   -9.4701 O   0  0  0  0  0 15  0  0  0  0  0  0
  -16.4414   20.5735  -11.1469 C   0  0  0  0  0 15  0  0  0  0  0  0
  -16.5480   21.3669  -12.7826 C   0  0  0  0  0 15  0  0  0  0  0  0
  -15.2946   20.3041  -10.8100 C   0  0  0  0  0 15  0  0  0  0  0  0
M  END
$$$$
