
     RDKit          3D

  6  0  0  0  0  0  0  0  0  0999 V2000
   37.3416   52.1523   43.5449 O   0  0  0  0  0 15  0  0  0  0  0  0
   35.9418   51.8699   41.4748 O   0  0  0  0  0 15  0  0  0  0  0  0
   36.6598   52.5722   41.3187 O   0  0  0  0  0 15  0  0  0  0  0  0
   36.2323   52.7734   42.0672 O   0  0  0  0  0 15  0  0  0  0  0  0
   36.8262   52.2891   42.1024 O   0  0  0  0  0 15  0  0  0  0  0  0
   36.5482   51.8165   42.1556 O   0  0  0  0  0 15  0  0  0  0  0  0
M  END
$$$$
