
     RDKit          3D

 13 17  0  0  0  0  0  0  0  0999 V2000
   64.8075   53.4924  109.8123 N   0  0  0  0  0  0  0  0  0  0  0  0
   63.6358   52.6861  109.2870 C   0  0  0  0  0  0  0  0  0  0  0  0
   63.6953   54.4053  109.5747 C   0  0  0  0  0  0  0  0  0  0  0  0
   63.1487   52.9248  110.4278 O   0  0  0  0  0  0  0  0  0  0  0  0
   62.9570   53.5224  109.1117 C   0  0  0  0  0  0  0  0  0  0  0  0
   64.1781   52.8217  110.5688 C   0  0  0  0  0  0  0  0  0  0  0  0
   62.1419   54.3564  110.1786 C   0  0  0  0  0  0  0  0  0  0  0  0
   63.4448   52.9355  110.6720 C   0  0  0  0  0  0  0  0  0  0  0  0
   63.0151   52.5602  109.8098 C   0  0  0  0  0  0  0  0  0  0  0  0
   61.6138   53.0424  109.1226 N   0  0  0  0  0  0  0  0  0  0  0  0
   65.1471   51.8729  108.9932 C   0  0  0  0  0  0  0  0  0  0  0  0
   64.2210   52.2828  108.7261 N   0  0  0  0  0  0  0  0  0  0  0  0
   62.3145   53.6010  111.1222 C   0  0  0  0  0  0  0  0  0  0  0  0
  4  8  1  0
  4  9  1  0
  6  8  1  0
  2  9  1  0
  2 12  1  0
  8  9  1  0
 11 12  1  0
  2  5  1  0
  5  9  1  0
  1  6  1  0
  7 13  1  0
  3  5  1  0
  8 13  1  0
  2  6  1  0
  5 10  1  0
  1  3  1  0
  3  7  1  0
M  END
$$$$
