
     RDKit          3D

  7  0  0  0  0  0  0  0  0  0999 V2000
   31.3637    4.8698   -6.6319 O   0  0  0  0  0 15  0  0  0  0  0  0
   32.8763    4.4114   -5.7402 C   0  0  0  0  0 15  0  0  0  0  0  0
   31.5376    3.5484   -6.9380 C   0  0  0  0  0 15  0  0  0  0  0  0
   32.8526    3.2481   -6.7039 O   0  0  0  0  0 15  0  0  0  0  0  0
   32.0260    4.3315   -5.7645 O   0  0  0  0  0 15  0  0  0  0  0  0
   31.5369    4.6845   -7.1874 C   0  0  0  0  0 15  0  0  0  0  0  0
   32.0025    4.8290   -6.1126 C   0  0  0  0  0 15  0  0  0  0  0  0
M  END
$$$$
