
     RDKit          3D

 32 36  0  0  0  0  0  0  0  0999 V2000
   28.1938   50.5542   23.0739 C   0  0  0  0  0  0  0  0  0  0  0  0
   26.5611   48.5122   21.9998 C   0  0  0  0  0  0  0  0  0  0  0  0
   27.5484   48.6019   22.9586 O   0  0  0  0  0  0  0  0  0  0  0  0
   26.4561   50.0984   23.4881 C   0  0  0  0  0  0  0  0  0  0  0  0
   26.9258   50.8060   25.4164 C   0  0  0  0  0  0  0  0  0  0  0  0
   27.8985   49.2029   22.7723 O   0  0  0  0  0  0  0  0  0  0  0  0
   26.5901   51.2416   22.6888 C   0  0  0  0  0  0  0  0  0  0  0  0
   27.9346   50.4307   23.2890 O   0  0  0  0  0  0  0  0  0  0  0  0
   28.0364   49.6634   24.1041 C   0  0  0  0  0  0  0  0  0  0  0  0
   25.3963   52.2667   21.6370 N   0  0  0  0  0  0  0  0  0  0  0  0
   28.2386   50.1594   22.6916 C   0  0  0  0  0  0  0  0  0  0  0  0
   28.2289   49.1068   22.8443 N   0  0  0  0  0  0  0  0  0  0  0  0
   27.5835   50.4492   21.8356 N   0  0  0  0  0  0  0  0  0  0  0  0
   28.0814   49.9175   21.8795 C   0  0  0  0  0  0  0  0  0  0  0  0
   27.0475   50.0001   22.1804 N   0  0  0  0  0  0  0  0  0  0  0  0
   28.5157   48.5842   22.6584 C   0  0  0  0  0  0  0  0  0  0  0  0
   28.1463   51.3215   21.7734 N   0  0  0  0  0  0  0  0  0  0  0  0
   25.3739   49.1421   22.2851 C   0  0  0  0  0  0  0  0  0  0  0  0
   27.7619   49.5187   23.0603 O   0  0  0  0  0  0  0  0  0  0  0  0
   26.7398   50.6816   21.6066 S   0  0  0  0  0  0  0  0  0  0  0  0
   29.1308   51.1144   24.2191 O   0  0  0  0  0  0  0  0  0  0  0  0
   26.8593   46.7556   23.8107 O   0  0  0  0  0  0  0  0  0  0  0  0
   24.5023   51.2754   21.5857 C   0  0  0  0  0  0  0  0  0  0  0  0
   27.4993   49.9557   22.8567 O   0  0  0  0  0  0  0  0  0  0  0  0
   28.0247   52.9411   22.6905 N   0  0  0  0  0  0  0  0  0  0  0  0
   27.6735   49.7111   23.5388 N   0  0  0  0  0  0  0  0  0  0  0  0
   28.6843   50.6545   21.3764 C   0  0  0  0  0  0  0  0  0  0  0  0
   27.6464   51.9881   23.1525 C   0  0  0  0  0  0  0  0  0  0  0  0
   26.3159   50.3936   21.1153 C   0  0  0  0  0  0  0  0  0  0  0  0
   27.4029   50.6549   24.2163 C   0  0  0  0  0  0  0  0  0  0  0  0
   26.7794   48.6214   24.5831 O   0  0  0  0  0  0  0  0  0  0  0  0
   27.6004   50.4254   24.5245 O   0  0  0  0  0  0  0  0  0  0  0  0
  6 12  1  0
  1  8  1  0
 30 32  1  0
  6 19  1  0
 19 26  1  0
  1 11  1  0
 12 16  1  0
  9 26  1  0
 20 29  1  0
  8 11  1  0
 13 14  1  0
 24 26  1  0
 13 15  1  0
 11 24  1  0
  3 12  1  0
 11 14  1  0
 13 20  1  0
 15 20  1  0
 17 27  1  0
  9 32  1  0
  3 16  1  0
 14 27  1  0
 14 15  1  0
 25 28  1  0
  9 30  1  0
  7 20  1  0
  5 30  1  0
  4 30  1  0
 10 23  1  0
  1  9  1  0
  2 18  1  0
  7 28  1  0
  4  7  1  0
  1 17  1  0
 17 20  1  0
 20 27  1  0
M  END
$$$$
