
     RDKit          3D

 20 23  0  0  0  0  0  0  0  0999 V2000
  -13.1362  -27.1160    0.6411 C   0  0  0  0  0  0  0  0  0  0  0  0
  -11.3435  -27.7069    1.5442 O   0  0  0  0  0  0  0  0  0  0  0  0
  -13.2073  -26.5534   -1.0289 C   0  0  0  0  0  0  0  0  0  0  0  0
  -12.4280  -25.6189    0.2239 C   0  0  0  0  0  0  0  0  0  0  0  0
  -14.1505  -26.5041    1.0543 C   0  0  0  0  0  0  0  0  0  0  0  0
  -14.3924  -25.6630    1.2598 C   0  0  0  0  0  0  0  0  0  0  0  0
  -12.0340  -25.9035    1.3151 C   0  0  0  0  0  0  0  0  0  0  0  0
  -12.1504  -26.5510   -0.5764 C   0  0  0  0  0  0  0  0  0  0  0  0
  -14.0928  -27.5619    0.7114 N   0  0  0  0  0  0  0  0  0  0  0  0
  -14.4727  -26.9427   -1.6518 O   0  0  0  0  0  0  0  0  0  0  0  0
  -13.0181  -27.2192    1.1981 O   0  0  0  0  0  0  0  0  0  0  0  0
  -11.3557  -26.1121   -1.7589 C   0  0  0  0  0  0  0  0  0  0  0  0
  -14.2530  -27.6096   -0.7301 C   0  0  0  0  0  0  0  0  0  0  0  0
  -13.4650  -25.7992   -0.8646 O   0  0  0  0  0  0  0  0  0  0  0  0
  -14.3520  -26.0092   -0.2829 N   0  0  0  0  0  0  0  0  0  0  0  0
  -14.2308  -27.4250   -2.7853 C   0  0  0  0  0  0  0  0  0  0  0  0
  -13.4271  -27.0154   -1.3207 Cl  0  0  0  0  0  0  0  0  0  0  0  0
  -12.3571  -25.4448    1.8305 Cl  0  0  0  0  0  0  0  0  0  0  0  0
  -12.5642  -27.9150    1.0805 C   0  0  0  0  0  0  0  0  0  0  0  0
  -13.3048  -26.1900   -0.3984 O   0  0  0  0  0  0  0  0  0  0  0  0
  1 11  1  0
  3 17  1  0
 14 20  1  0
  3 20  1  0
  7 18  1  0
  3 14  1  0
 11 19  1  0
  5  6  1  0
  1  9  1  0
  1 19  1  0
  5  9  1  0
  3  8  1  0
 10 13  1  0
  4  7  1  0
  1  5  1  0
 10 16  1  0
  4  8  1  0
  2 19  1  0
  5 15  1  0
  9 13  1  0
  8 12  1  0
  6 15  1  0
 13 15  1  0
M  END
$$$$
