
     RDKit          3D

 23 31  0  0  0  0  0  0  0  0999 V2000
   -1.9885  -29.0864  -12.6349 N   0  0  0  0  0  0  0  0  0  0  0  0
   -2.7961  -29.2482  -12.8340 C   0  0  0  0  0  0  0  0  0  0  0  0
   -2.2433  -29.8877  -11.8136 C   0  0  0  0  0  0  0  0  0  0  0  0
   -2.6615  -31.1736  -12.1465 C   0  0  0  0  0  0  0  0  0  0  0  0
   -2.1418  -29.8073  -11.6534 C   0  0  0  0  0  0  0  0  0  0  0  0
   -2.9071  -30.0871  -12.9826 C   0  0  0  0  0  0  0  0  0  0  0  0
   -2.5282  -30.0321  -10.7317 C   0  0  0  0  0  0  0  0  0  0  0  0
   -3.4651  -28.9812  -12.3224 C   0  0  0  0  0  0  0  0  0  0  0  0
   -0.9979  -30.3291  -12.7756 C   0  0  0  0  0  0  0  0  0  0  0  0
   -2.0220  -28.8165  -11.9647 C   0  0  0  0  0  0  0  0  0  0  0  0
   -1.0818  -29.9093  -12.0292 O   0  0  0  0  0  0  0  0  0  0  0  0
   -1.4841  -29.9730   -9.8831 O   0  0  0  0  0  0  0  0  0  0  0  0
   -2.0056  -29.9390  -11.8756 C   0  0  0  0  0  0  0  0  0  0  0  0
   -0.4685  -29.8348  -11.2192 N   0  0  0  0  0  0  0  0  0  0  0  0
   -3.8188  -29.2689  -13.1996 O   0  0  0  0  0  0  0  0  0  0  0  0
   -3.9373  -29.4479  -10.7566 C   0  0  0  0  0  0  0  0  0  0  0  0
   -2.8374  -29.9255  -11.5401 C   0  0  0  0  0  0  0  0  0  0  0  0
   -1.3303  -27.8986  -13.6870 C   0  0  0  0  0  0  0  0  0  0  0  0
   -1.4211  -29.8357  -11.7502 C   0  0  0  0  0  0  0  0  0  0  0  0
   -2.5531  -29.1226  -11.5338 C   0  0  0  0  0  0  0  0  0  0  0  0
   -2.2543  -29.2479  -13.6611 C   0  0  0  0  0  0  0  0  0  0  0  0
   -3.1886  -31.1324  -12.2565 C   0  0  0  0  0  0  0  0  0  0  0  0
   -2.6273  -30.1081  -13.7736 C   0  0  0  0  0  0  0  0  0  0  0  0
  3  5  1  0
  3 13  1  0
  5 13  1  0
 11 19  1  0
  4 22  1  0
 13 19  1  0
  3 17  1  0
  5 17  1  0
  1 10  1  0
  5 19  1  0
 10 20  1  0
  3 19  1  0
  6 23  1  0
  1  2  1  0
 17 20  1  0
  2  6  1  0
  9 11  1  0
  7 17  1  0
  2  8  1  0
 21 23  1  0
  8 15  1  0
  2 21  1  0
 13 20  1  0
  1 21  1  0
  7 20  1  0
  6 15  1  0
  6 21  1  0
  7 12  1  0
  8 10  1  0
  7 16  1  0
  8 16  1  0
M  END
$$$$
