
     RDKit          3D

 19 23  0  0  0  0  0  0  0  0999 V2000
   26.0039   55.9657   89.9582 O   0  0  0  0  0  0  0  0  0  0  0  0
   25.2660   54.1904   90.0840 C   0  0  0  0  0  0  0  0  0  0  0  0
   24.7226   57.5044   87.9279 C   0  0  0  0  0  0  0  0  0  0  0  0
   26.0978   59.7163   87.9448 C   0  0  0  0  0  0  0  0  0  0  0  0
   25.3767   56.9135   88.2024 C   0  0  0  0  0  0  0  0  0  0  0  0
   26.8992   57.2809   89.5472 C   0  0  0  0  0  0  0  0  0  0  0  0
   25.6476   55.6630   90.2246 C   0  0  0  0  0  0  0  0  0  0  0  0
   25.5983   56.2886   88.8030 C   0  0  0  0  0  0  0  0  0  0  0  0
   24.2388   56.1096   90.3423 C   0  0  0  0  0  0  0  0  0  0  0  0
   27.6037   57.8528   89.0207 C   0  0  0  0  0  0  0  0  0  0  0  0
   25.2230   56.3975   89.3861 C   0  0  0  0  0  0  0  0  0  0  0  0
   24.7326   56.7801   89.5947 C   0  0  0  0  0  0  0  0  0  0  0  0
   25.5773   55.3755   86.7124 C   0  0  0  0  0  0  0  0  0  0  0  0
   25.4064   55.8111   88.7150 O   0  0  0  0  0  0  0  0  0  0  0  0
   26.2219   57.5562   89.0684 C   0  0  0  0  0  0  0  0  0  0  0  0
   27.7253   56.7434   89.1755 N   0  0  0  0  0  0  0  0  0  0  0  0
   25.9743   56.7368   88.7049 C   0  0  0  0  0  0  0  0  0  0  0  0
   25.2251   58.7961   89.7817 C   0  0  0  0  0  0  0  0  0  0  0  0
   27.5564   58.2747   87.5145 C   0  0  0  0  0  0  0  0  0  0  0  0
  8 14  1  0
  1  7  1  0
  8 17  1  0
 11 12  1  0
  8 11  1  0
  5 17  1  0
  6 15  1  0
  5  8  1  0
 11 14  1  0
  3  5  1  0
 15 17  1  0
  6 10  1  0
  6 16  1  0
  1 11  1  0
  9 12  1  0
 10 16  1  0
  6 17  1  0
  5 15  1  0
 10 15  1  0
  7  9  1  0
  2  7  1  0
 10 19  1  0
  7 12  1  0
M  END
$$$$
