
     RDKit          3D

 16 19  0  0  0  0  0  0  0  0999 V2000
   35.7415   57.8496   33.4940 C   0  0  0  0  0  0  0  0  0  0  0  0
   36.4021   56.8099   32.1979 C   0  0  0  0  0  0  0  0  0  0  0  0
   36.1664   58.5959   35.8156 C   0  0  0  0  0  0  0  0  0  0  0  0
   33.0788   58.3116   34.4489 C   0  0  0  0  0  0  0  0  0  0  0  0
   34.0702   56.4833   36.5211 C   0  0  0  0  0  0  0  0  0  0  0  0
   33.8626   59.7068   33.9157 C   0  0  0  0  0  0  0  0  0  0  0  0
   34.6817   58.3555   34.2317 C   0  0  0  0  0  0  0  0  0  0  0  0
   35.6175   58.8790   33.4557 N   0  0  0  0  0  0  0  0  0  0  0  0
   34.1727   56.9221   33.7178 N   0  0  0  0  0  0  0  0  0  0  0  0
   35.3532   56.7925   33.8598 C   0  0  0  0  0  0  0  0  0  0  0  0
   35.3693   59.3310   33.8888 O   0  0  0  0  0  0  0  0  0  0  0  0
   35.1619   57.2388   32.9433 C   0  0  0  0  0  0  0  0  0  0  0  0
   33.9785   56.3402   33.7816 C   0  0  0  0  0  0  0  0  0  0  0  0
   32.8330   56.4420   36.4961 C   0  0  0  0  0  0  0  0  0  0  0  0
   35.0429   58.1306   33.3671 C   0  0  0  0  0  0  0  0  0  0  0  0
   35.9339   59.3304   33.0018 N   0  0  0  0  0  0  0  0  0  0  0  0
  9 13  1  0
  8 11  1  0
  8 16  1  0
  1 15  1  0
  8 15  1  0
  7 15  1  0
 12 15  1  0
  1 12  1  0
 10 12  1  0
 11 16  1  0
  1 10  1  0
  9 10  1  0
  5 14  1  0
  9 12  1  0
  1  7  1  0
 10 13  1  0
  6  7  1  0
  4  7  1  0
  4  6  1  0
M  END
$$$$
