
     RDKit          3D

 15 21  0  0  0  0  0  0  0  0999 V2000
   72.0808   53.3025   42.2779 N   0  0  0  0  0  0  0  0  0  0  0  0
   71.0324   53.7891   42.6447 C   0  0  0  0  0  0  0  0  0  0  0  0
   72.5133   52.3654   44.6316 C   0  0  0  0  0  0  0  0  0  0  0  0
   71.3739   55.3584   40.4811 N   0  0  0  0  0  0  0  0  0  0  0  0
   71.8696   53.7065   42.0816 O   0  0  0  0  0  0  0  0  0  0  0  0
   71.4944   53.3200   43.2467 C   0  0  0  0  0  0  0  0  0  0  0  0
   73.2592   53.9764   43.3206 N   0  0  0  0  0  0  0  0  0  0  0  0
   70.2793   53.6975   42.1164 N   0  0  0  0  0  0  0  0  0  0  0  0
   71.8010   53.9734   41.1742 C   0  0  0  0  0  0  0  0  0  0  0  0
   72.1546   54.2628   42.9815 N   0  0  0  0  0  0  0  0  0  0  0  0
   70.3231   53.2678   42.7531 C   0  0  0  0  0  0  0  0  0  0  0  0
   70.7433   54.1839   42.0123 C   0  0  0  0  0  0  0  0  0  0  0  0
   71.0690   54.8408   41.9826 C   0  0  0  0  0  0  0  0  0  0  0  0
   71.3872   53.6048   42.3999 C   0  0  0  0  0  0  0  0  0  0  0  0
   70.8433   53.3179   42.7176 C   0  0  0  0  0  0  0  0  0  0  0  0
  2 14  1  0
  1  5  1  0
  2 15  1  0
 11 15  1  0
  5 14  1  0
  8 12  1  0
 14 15  1  0
 12 13  1  0
  1 14  1  0
  8 11  1  0
  2 12  1  0
  6 15  1  0
  2 11  1  0
  1  6  1  0
  6 10  1  0
  7 10  1  0
 11 12  1  0
  9 13  1  0
  8 13  1  0
 10 13  1  0
  4  9  1  0
M  END
$$$$
