
     RDKit          3D

  4  0  0  0  0  0  0  0  0  0999 V2000
   24.6053   58.1754   87.7284 O   0  0  0  0  0 15  0  0  0  0  0  0
   25.2224   57.2623   88.1572 O   0  0  0  0  0 15  0  0  0  0  0  0
   26.7971   57.8432   89.3863 O   0  0  0  0  0 15  0  0  0  0  0  0
   25.4594   56.9109   88.6421 O   0  0  0  0  0 15  0  0  0  0  0  0
M  END
$$$$
