
     RDKit          3D

 37 62  0  0  0  0  0  0  0  0999 V2000
   32.1266   29.6751   -1.7972 N   0  0  0  0  0  0  0  0  0  0  0  0
   31.9433   29.0042   -2.4136 C   0  0  0  0  0  0  0  0  0  0  0  0
   31.5100   29.1074   -2.5380 C   0  0  0  0  0  0  0  0  0  0  0  0
   33.0336   28.8996   -3.2477 C   0  0  0  0  0  0  0  0  0  0  0  0
   33.3126   27.6314   -2.8113 C   0  0  0  0  0  0  0  0  0  0  0  0
   32.2956   26.6273   -2.4317 N   0  0  0  0  0  0  0  0  0  0  0  0
   34.4826   26.2756   -1.6889 C   0  0  0  0  0  0  0  0  0  0  0  0
   32.2175   28.9636   -1.7398 C   0  0  0  0  0  0  0  0  0  0  0  0
   33.4296   27.1759   -3.3131 N   0  0  0  0  0  0  0  0  0  0  0  0
   32.5438   29.3374   -1.1892 C   0  0  0  0  0  0  0  0  0  0  0  0
   31.9410   27.5840   -2.7342 C   0  0  0  0  0  0  0  0  0  0  0  0
   31.6176   27.5840   -1.7044 C   0  0  0  0  0  0  0  0  0  0  0  0
   33.6433   28.3636   -1.3306 C   0  0  0  0  0  0  0  0  0  0  0  0
   31.8937   27.6833   -2.4591 C   0  0  0  0  0  0  0  0  0  0  0  0
   30.7305   29.3009   -1.6059 C   0  0  0  0  0  0  0  0  0  0  0  0
   31.1404   27.6625   -2.4898 C   0  0  0  0  0  0  0  0  0  0  0  0
   31.9473   27.3019   -3.0038 N   0  0  0  0  0  0  0  0  0  0  0  0
   33.6323   26.7785   -3.8603 O   0  0  0  0  0  0  0  0  0  0  0  0
   32.0248   27.3298   -0.9862 C   0  0  0  0  0  0  0  0  0  0  0  0
   34.8748   28.9467   -2.9606 C   0  0  0  0  0  0  0  0  0  0  0  0
   32.7410   27.2962   -0.7882 C   0  0  0  0  0  0  0  0  0  0  0  0
   32.8591   27.9639   -3.4354 C   0  0  0  0  0  0  0  0  0  0  0  0
   34.2304   29.5376   -2.7610 C   0  0  0  0  0  0  0  0  0  0  0  0
   33.5937   27.9565   -1.5104 C   0  0  0  0  0  0  0  0  0  0  0  0
   31.6870   28.4979   -2.7220 C   0  0  0  0  0  0  0  0  0  0  0  0
   33.3596   26.6042   -2.7501 O   0  0  0  0  0  0  0  0  0  0  0  0
   33.2929   29.6983   -2.2122 O   0  0  0  0  0  0  0  0  0  0  0  0
   33.8091   26.6877   -3.5546 C   0  0  0  0  0  0  0  0  0  0  0  0
   33.1969   26.8577   -1.2711 C   0  0  0  0  0  0  0  0  0  0  0  0
   32.4207   27.2396   -0.8843 S   0  0  0  0  0  0  0  0  0  0  0  0
   34.6156   29.0148   -3.1660 O   0  0  0  0  0  0  0  0  0  0  0  0
   33.4468   29.5283   -3.7691 O   0  0  0  0  0  0  0  0  0  0  0  0
   33.8986   27.7000   -2.1879 C   0  0  0  0  0  0  0  0  0  0  0  0
   33.5804   29.1289   -3.5609 C   0  0  0  0  0  0  0  0  0  0  0  0
   31.8653   26.8631   -3.8870 C   0  0  0  0  0  0  0  0  0  0  0  0
   33.4041   25.6503   -2.4475 C   0  0  0  0  0  0  0  0  0  0  0  0
   33.5769   27.0984   -4.6347 S   0  0  0  0  0  0  0  0  0  0  0  0
 11 14  1  0
 20 31  1  0
 21 30  1  0
 18 28  1  0
 11 17  1  0
 19 30  1  0
 13 24  1  0
  2  3  1  0
 32 34  1  0
  2 25  1  0
  3 25  1  0
  9 28  1  0
 14 17  1  0
  4 34  1  0
  5  9  1  0
  9 18  1  0
  1  8  1  0
  2  8  1  0
  8 10  1  0
 19 21  1  0
 14 16  1  0
 23 31  1  0
 24 33  1  0
 21 29  1  0
 12 14  1  0
  1 10  1  0
  5 22  1  0
 11 16  1  0
  5 33  1  0
 12 19  1  0
 20 23  1  0
  4 32  1  0
 12 16  1  0
 26 28  1  0
  1  2  1  0
 29 30  1  0
 11 25  1  0
  6 17  1  0
  4 22  1  0
 26 36  1  0
 16 25  1  0
  3  8  1  0
 23 27  1  0
 23 34  1  0
 13 33  1  0
 28 37  1  0
 24 29  1  0
 12 30  1  0
  3 15  1  0
 19 29  1  0
 21 24  1  0
 10 27  1  0
  4  5  1  0
 22 34  1  0
  7 36  1  0
 10 13  1  0
  6 36  1  0
  6 35  1  0
 22 35  1  0
  7 33  1  0
 13 30  1  0
 35 37  1  0
M  END
$$$$
