
     RDKit          3D

 15  0  0  0  0  0  0  0  0  0999 V2000
  -38.6762   -5.6826    4.8523 O   0  0  0  0  0 15  0  0  0  0  0  0
  -39.2145   -6.0971    7.7493 O   0  0  0  0  0 15  0  0  0  0  0  0
  -40.7815   -6.7029    8.3587 C   0  0  0  0  0 15  0  0  0  0  0  0
  -40.2082   -7.2842    5.5685 C   0  0  0  0  0 15  0  0  0  0  0  0
  -41.2247   -5.0535    7.2986 O   0  0  0  0  0 15  0  0  0  0  0  0
  -38.4531   -5.7906    7.2897 C   0  0  0  0  0 15  0  0  0  0  0  0
  -41.3157   -7.1531    9.0351 C   0  0  0  0  0 15  0  0  0  0  0  0
  -39.9039   -6.5596    8.9235 O   0  0  0  0  0 15  0  0  0  0  0  0
  -40.4704   -7.1052    7.6262 C   0  0  0  0  0 15  0  0  0  0  0  0
  -39.9789   -7.2771    7.6454 C   0  0  0  0  0 15  0  0  0  0  0  0
  -39.0266   -6.4853    6.0592 C   0  0  0  0  0 15  0  0  0  0  0  0
  -40.8096   -6.4874    6.2350 C   0  0  0  0  0 15  0  0  0  0  0  0
  -39.7742   -7.0066    6.1788 C   0  0  0  0  0 15  0  0  0  0  0  0
  -40.9248   -8.1437    7.8073 C   0  0  0  0  0 15  0  0  0  0  0  0
  -40.6192   -7.7370    6.6141 C   0  0  0  0  0 15  0  0  0  0  0  0
M  END
$$$$
