
     RDKit          3D

  7  0  0  0  0  0  0  0  0  0999 V2000
   33.7012   43.2170   18.5802 O   0  0  0  0  0 15  0  0  0  0  0  0
   35.0548   45.5693   18.2596 O   0  0  0  0  0 15  0  0  0  0  0  0
   34.3341   44.2115   18.3444 O   0  0  0  0  0 15  0  0  0  0  0  0
   34.3776   44.9124   18.5477 O   0  0  0  0  0 15  0  0  0  0  0  0
   33.6040   44.3037   18.6484 C   0  0  0  0  0 15  0  0  0  0  0  0
   34.4211   44.5065   18.7733 C   0  0  0  0  0 15  0  0  0  0  0  0
   33.3924   43.7151   18.7423 C   0  0  0  0  0 15  0  0  0  0  0  0
M  END
$$$$
