
     RDKit          3D

 21 34  0  0  0  0  0  0  0  0999 V2000
  -25.0134    9.4297   -2.1748 C   0  0  0  0  0  0  0  0  0  0  0  0
  -24.7352   10.2550   -2.8063 C   0  0  0  0  0  0  0  0  0  0  0  0
  -24.1893    9.6606   -2.1839 C   0  0  0  0  0  0  0  0  0  0  0  0
  -25.6133    9.5272   -2.1207 O   0  0  0  0  0  0  0  0  0  0  0  0
  -23.2516    9.0754   -2.2396 C   0  0  0  0  0  0  0  0  0  0  0  0
  -24.3669   10.5326   -1.8538 C   0  0  0  0  0  0  0  0  0  0  0  0
  -24.3319    9.5351   -2.9061 C   0  0  0  0  0  0  0  0  0  0  0  0
  -24.0295    9.5478   -1.4032 C   0  0  0  0  0  0  0  0  0  0  0  0
  -26.5108   10.9660   -3.6986 C   0  0  0  0  0  0  0  0  0  0  0  0
  -25.4669    8.9673   -0.6639 C   0  0  0  0  0  0  0  0  0  0  0  0
  -23.9100   11.1817   -2.1818 C   0  0  0  0  0  0  0  0  0  0  0  0
  -24.6392   10.2754   -1.0859 C   0  0  0  0  0  0  0  0  0  0  0  0
  -23.1485   10.2659   -2.8690 C   0  0  0  0  0  0  0  0  0  0  0  0
  -23.3288    8.8093   -2.1827 C   0  0  0  0  0  0  0  0  0  0  0  0
  -22.9228    8.4239   -0.6870 C   0  0  0  0  0  0  0  0  0  0  0  0
  -24.9959    9.2645   -1.7414 C   0  0  0  0  0  0  0  0  0  0  0  0
  -23.4281    9.3417   -0.9221 C   0  0  0  0  0  0  0  0  0  0  0  0
  -23.3222   11.0052   -1.8697 C   0  0  0  0  0  0  0  0  0  0  0  0
  -25.5795   11.8643   -2.5905 O   0  0  0  0  0  0  0  0  0  0  0  0
  -24.0909    9.7092   -0.5265 C   0  0  0  0  0  0  0  0  0  0  0  0
  -23.1904   10.0576   -1.3107 C   0  0  0  0  0  0  0  0  0  0  0  0
  5 14  1  0
  1 16  1  0
  1  4  1  0
 11 18  1  0
  3  7  1  0
  4 16  1  0
  8 17  1  0
  3  8  1  0
  2  7  1  0
 17 21  1  0
  6 12  1  0
 17 20  1  0
  1  3  1  0
  6 11  1  0
  8 20  1  0
  3  6  1  0
 12 20  1  0
  8 21  1  0
  1  7  1  0
  2  6  1  0
 15 17  1  0
 18 21  1  0
 10 16  1  0
 20 21  1  0
 13 18  1  0
 12 16  1  0
  5  7  1  0
  5 13  1  0
 11 13  1  0
  2 11  1  0
  2 13  1  0
 14 15  1  0
 10 12  1  0
  5 15  1  0
M  END
$$$$
