
     RDKit          3D

 27 34  0  0  0  0  0  0  0  0999 V2000
   15.5217    8.0755   34.1954 C   0  0  0  0  0  0  0  0  0  0  0  0
   12.5752    7.9735   32.7887 C   0  0  0  0  0  0  0  0  0  0  0  0
   13.6095    6.5848   36.1850 N   0  0  0  0  0  0  0  0  0  0  0  0
   13.6027    9.6708   32.4822 O   0  0  0  0  0  0  0  0  0  0  0  0
   11.5236    7.9814   34.7005 C   0  0  0  0  0  0  0  0  0  0  0  0
   12.0610    6.9058   34.1786 C   0  0  0  0  0  0  0  0  0  0  0  0
   14.2543    9.5233   35.4635 C   0  0  0  0  0  0  0  0  0  0  0  0
   13.1454    9.2905   34.7590 C   0  0  0  0  0  0  0  0  0  0  0  0
   11.2173    8.7402   32.9666 C   0  0  0  0  0  0  0  0  0  0  0  0
   13.5343    8.2122   33.5867 C   0  0  0  0  0  0  0  0  0  0  0  0
   11.1484    7.6544   31.2491 C   0  0  0  0  0  0  0  0  0  0  0  0
   12.8049    7.8679   33.0219 C   0  0  0  0  0  0  0  0  0  0  0  0
   12.5871   11.0388   33.4817 C   0  0  0  0  0  0  0  0  0  0  0  0
   14.8613    9.0368   35.2047 O   0  0  0  0  0  0  0  0  0  0  0  0
   12.4803    7.5410   33.0674 C   0  0  0  0  0  0  0  0  0  0  0  0
   15.0367    8.8366   33.1773 C   0  0  0  0  0  0  0  0  0  0  0  0
   12.5594    9.4737   31.0930 C   0  0  0  0  0  0  0  0  0  0  0  0
   13.7954    8.0426   33.1358 C   0  0  0  0  0  0  0  0  0  0  0  0
   13.7920    9.0558   33.9180 C   0  0  0  0  0  0  0  0  0  0  0  0
   14.0368    8.1186   34.3376 C   0  0  0  0  0  0  0  0  0  0  0  0
   14.0634    8.9820   33.2906 C   0  0  0  0  0  0  0  0  0  0  0  0
   12.1474    8.5192   34.8196 O   0  0  0  0  0  0  0  0  0  0  0  0
   11.0593    8.2270   33.4556 C   0  0  0  0  0  0  0  0  0  0  0  0
   13.0326    8.9083   33.9828 C   0  0  0  0  0  0  0  0  0  0  0  0
   11.7298    9.1131   33.9492 N   0  0  0  0  0  0  0  0  0  0  0  0
   12.4675    7.9119   32.4948 O   0  0  0  0  0  0  0  0  0  0  0  0
   13.9430    8.6189   33.6591 O   0  0  0  0  0  0  0  0  0  0  0  0
  2 26  1  0
  2 12  1  0
 12 15  1  0
  2 15  1  0
 19 27  1  0
 21 27  1  0
 10 18  1  0
 12 26  1  0
 19 21  1  0
  9 23  1  0
 19 24  1  0
  7 14  1  0
  5 22  1  0
  8 24  1  0
 10 20  1  0
 10 19  1  0
 10 24  1  0
 18 21  1  0
 16 21  1  0
 12 18  1  0
 22 25  1  0
  9 25  1  0
 23 25  1  0
 18 20  1  0
  5  6  1  0
 20 24  1  0
  7  8  1  0
  6 15  1  0
  5 23  1  0
  1 16  1  0
  1 20  1  0
  1 14  1  0
  2  9  1  0
 15 23  1  0
M  END
$$$$
