
     RDKit          3D

 11  5  0  0  0  0  0  0  0  0999 V2000
    0.4449   12.6430    2.6108 N   0  0  0  0  0  0  0  0  0  0  0  0
   -1.2955   11.8186    0.5106 C   0  0  0  0  0  0  0  0  0  0  0  0
    2.0537   13.5824    0.6774 C   0  0  0  0  0  0  0  0  0  0  0  0
    0.5254   14.0628   -0.4314 C   0  0  0  0  0  0  0  0  0  0  0  0
   -0.8199   11.6876    1.8799 C   0  0  0  0  0  0  0  0  0  0  0  0
    1.2562   13.0701    0.7603 C   0  0  0  0  0  0  0  0  0  0  0  0
   -2.3140   12.6091    1.8986 C   0  0  0  0  0  0  0  0  0  0  0  0
    3.3274   13.9187    0.9056 S   0  0  0  0  0  0  0  0  0  0  0  0
    0.7764   12.0439    0.6953 C   0  0  0  0  0  0  0  0  0  0  0  0
    0.1169   11.7587   -1.0492 C   0  0  0  0  0  0  0  0  0  0  0  0
    2.1098   11.9039   -0.6948 N   0  0  0  0  0  0  0  0  0  0  0  0
  3  6  1  0
  6  9  1  0
  3  8  1  0
  2  5  1  0
  4  6  1  0
M  END
$$$$
