
     RDKit          3D

  9  0  0  0  0  0  0  0  0  0999 V2000
  -13.7578    3.5011  -21.0069 C   0  0  0  0  0 15  0  0  0  0  0  0
  -14.0269    3.3634  -21.5609 C   0  0  0  0  0 15  0  0  0  0  0  0
  -13.8451    3.7782  -20.2509 O   0  0  0  0  0 15  0  0  0  0  0  0
  -13.8334    2.4021  -20.9601 O   0  0  0  0  0 15  0  0  0  0  0  0
  -14.0585    2.0929  -21.6821 O   0  0  0  0  0 15  0  0  0  0  0  0
  -14.8435    3.1155  -20.2829 O   0  0  0  0  0 15  0  0  0  0  0  0
  -12.9231    2.9746  -20.3018 C   0  0  0  0  0 15  0  0  0  0  0  0
  -13.3414    3.3448  -22.1999 O   0  0  0  0  0 15  0  0  0  0  0  0
  -13.3463    2.8136  -19.4804 C   0  0  0  0  0 15  0  0  0  0  0  0
M  END
$$$$
