
     RDKit          3D

  4  0  0  0  0  0  0  0  0  0999 V2000
    9.6847  -17.7568  -12.3818 C   0  0  0  0  0 15  0  0  0  0  0  0
    8.2301  -17.9651  -11.5789 O   0  0  0  0  0 15  0  0  0  0  0  0
    9.7923  -17.3572  -11.7460 O   0  0  0  0  0 15  0  0  0  0  0  0
   10.1945  -17.4455  -11.9280 C   0  0  0  0  0 15  0  0  0  0  0  0
M  END
$$$$
