
     RDKit          3D

 16 18  0  0  0  0  0  0  0  0999 V2000
   -1.3253  -17.7270   -9.3827 O   0  0  0  0  0  0  0  0  0  0  0  0
   -3.7175  -17.1967  -12.9458 C   0  0  0  0  0  0  0  0  0  0  0  0
   -0.9855  -18.4172  -11.6058 C   0  0  0  0  0  0  0  0  0  0  0  0
   -2.1637  -18.0443  -13.1070 C   0  0  0  0  0  0  0  0  0  0  0  0
   -1.5860  -17.1389   -9.2125 C   0  0  0  0  0  0  0  0  0  0  0  0
   -3.0460  -17.1941  -10.7138 C   0  0  0  0  0  0  0  0  0  0  0  0
   -3.0347  -18.3367  -10.6233 C   0  0  0  0  0  0  0  0  0  0  0  0
   -1.8963  -17.8265  -11.3944 O   0  0  0  0  0  0  0  0  0  0  0  0
   -4.0110  -17.0430  -11.7423 O   0  0  0  0  0  0  0  0  0  0  0  0
   -4.7452  -17.6463  -11.6017 C   0  0  0  0  0  0  0  0  0  0  0  0
   -1.8014  -17.2093  -12.0790 O   0  0  0  0  0  0  0  0  0  0  0  0
   -2.2161  -18.8610  -11.3101 C   0  0  0  0  0  0  0  0  0  0  0  0
   -1.0829  -18.0847  -11.7371 C   0  0  0  0  0  0  0  0  0  0  0  0
   -2.3482  -18.3207  -12.3679 C   0  0  0  0  0  0  0  0  0  0  0  0
   -3.0000  -16.8711   -9.6371 C   0  0  0  0  0  0  0  0  0  0  0  0
   -2.8577  -17.2871  -11.6750 C   0  0  0  0  0  0  0  0  0  0  0  0
  3 13  1  0
  1  5  1  0
  4 14  1  0
  8 13  1  0
  8 11  1  0
  9 10  1  0
  6 16  1  0
  6 15  1  0
 11 16  1  0
  6  7  1  0
  9 16  1  0
  7 12  1  0
 12 14  1  0
  3 12  1  0
 14 16  1  0
 13 14  1  0
 12 13  1  0
  5 15  1  0
M  END
$$$$
