
     RDKit          3D

 21 27  0  0  0  0  0  0  0  0999 V2000
  -22.6265   19.6099  -28.7730 C   0  0  0  0  0  0  0  0  0  0  0  0
  -19.0411   17.4592  -27.6259 C   0  0  0  0  0  0  0  0  0  0  0  0
  -21.6106   19.2558  -29.4914 C   0  0  0  0  0  0  0  0  0  0  0  0
  -21.1680   18.0051  -29.7752 C   0  0  0  0  0  0  0  0  0  0  0  0
  -20.2670   16.6659  -29.1812 C   0  0  0  0  0  0  0  0  0  0  0  0
  -20.1073   17.2336  -26.6782 C   0  0  0  0  0  0  0  0  0  0  0  0
  -20.5931   17.6728  -27.9454 O   0  0  0  0  0  0  0  0  0  0  0  0
  -20.3049   16.5662  -27.7310 O   0  0  0  0  0  0  0  0  0  0  0  0
  -23.3496   18.4142  -26.7891 C   0  0  0  0  0  0  0  0  0  0  0  0
  -23.1179   17.2062  -27.7179 C   0  0  0  0  0  0  0  0  0  0  0  0
  -21.3766   18.8518  -29.2278 N   0  0  0  0  0  0  0  0  0  0  0  0
  -19.9272   16.4902  -27.4990 C   0  0  0  0  0  0  0  0  0  0  0  0
  -21.0961   18.3136  -29.1670 N   0  0  0  0  0  0  0  0  0  0  0  0
  -21.1121   17.3592  -27.5995 C   0  0  0  0  0  0  0  0  0  0  0  0
  -22.6704   17.4428  -26.6514 C   0  0  0  0  0  0  0  0  0  0  0  0
  -21.9832   17.3246  -29.0459 C   0  0  0  0  0  0  0  0  0  0  0  0
  -20.1728   16.1250  -27.9010 O   0  0  0  0  0  0  0  0  0  0  0  0
  -21.3828   18.4580  -28.2127 C   0  0  0  0  0  0  0  0  0  0  0  0
  -21.3449   18.5500  -28.0856 C   0  0  0  0  0  0  0  0  0  0  0  0
  -20.5539   18.6141  -29.8951 C   0  0  0  0  0  0  0  0  0  0  0  0
  -20.5806   19.5188  -28.5910 O   0  0  0  0  0  0  0  0  0  0  0  0
 18 19  1  0
  8 12  1  0
  8 17  1  0
  3 11  1  0
 12 17  1  0
 11 13  1  0
  4 13  1  0
  7 14  1  0
  4 20  1  0
 13 20  1  0
  4 11  1  0
  6 12  1  0
  7 18  1  0
 10 15  1  0
  9 15  1  0
 14 18  1  0
  4 16  1  0
  1  3  1  0
  3 20  1  0
 14 19  1  0
  2 12  1  0
 19 21  1  0
  6 14  1  0
 18 21  1  0
  2  6  1  0
  9 10  1  0
  3 19  1  0
M  END
$$$$
