
     RDKit          3D

 25 30  0  0  0  0  0  0  0  0999 V2000
   35.5472  -34.8146   10.2352 C   0  0  0  0  0  0  0  0  0  0  0  0
   34.1351  -38.6214    7.9223 C   0  0  0  0  0  0  0  0  0  0  0  0
   34.9988  -36.4129    8.2905 S   0  0  0  0  0  0  0  0  0  0  0  0
   35.9085  -37.9619    7.2666 N   0  0  0  0  0  0  0  0  0  0  0  0
   33.9086  -36.5133    8.7467 C   0  0  0  0  0  0  0  0  0  0  0  0
   33.3580  -35.4769    7.9868 C   0  0  0  0  0  0  0  0  0  0  0  0
   34.4817  -37.1528    7.4809 C   0  0  0  0  0  0  0  0  0  0  0  0
   33.5251  -38.5541    9.0209 C   0  0  0  0  0  0  0  0  0  0  0  0
   33.7653  -36.5490    7.0529 O   0  0  0  0  0  0  0  0  0  0  0  0
   35.1572  -36.6376    7.9434 C   0  0  0  0  0  0  0  0  0  0  0  0
   34.4772  -37.1923    7.7221 O   0  0  0  0  0  0  0  0  0  0  0  0
   34.6932  -37.3213    7.9647 O   0  0  0  0  0  0  0  0  0  0  0  0
   35.3147  -35.9257    8.8955 O   0  0  0  0  0  0  0  0  0  0  0  0
   36.2658  -38.0112    9.1395 C   0  0  0  0  0  0  0  0  0  0  0  0
   35.2814  -36.8456    6.8725 N   0  0  0  0  0  0  0  0  0  0  0  0
   34.2128  -37.1620    6.3757 C   0  0  0  0  0  0  0  0  0  0  0  0
   35.1912  -38.3603    7.9112 O   0  0  0  0  0  0  0  0  0  0  0  0
   34.8772  -35.1147    6.0802 N   0  0  0  0  0  0  0  0  0  0  0  0
   35.3128  -37.2636    7.6596 C   0  0  0  0  0  0  0  0  0  0  0  0
   37.1369  -39.5572    6.9901 C   0  0  0  0  0  0  0  0  0  0  0  0
   35.3891  -38.2117    8.2271 C   0  0  0  0  0  0  0  0  0  0  0  0
   35.7952  -37.4430    7.7200 C   0  0  0  0  0  0  0  0  0  0  0  0
   36.9841  -35.1558    8.1848 C   0  0  0  0  0  0  0  0  0  0  0  0
   35.8628  -38.1043    8.2779 C   0  0  0  0  0  0  0  0  0  0  0  0
   34.5631  -35.7823    7.8266 C   0  0  0  0  0  0  0  0  0  0  0  0
  7 11  1  0
 11 12  1  0
 17 21  1  0
  3 10  1  0
 21 24  1  0
 19 22  1  0
  7 12  1  0
  4 22  1  0
 10 19  1  0
 17 24  1  0
  3 13  1  0
  7 19  1  0
 22 24  1  0
 15 19  1  0
  3 25  1  0
 14 24  1  0
  7 10  1  0
 21 22  1  0
  9 16  1  0
 10 25  1  0
  4 21  1  0
  3  5  1  0
 15 16  1  0
  6 25  1  0
  2  8  1  0
 13 25  1  0
  4 15  1  0
  5  6  1  0
  6  9  1  0
  3  6  1  0
M  END
$$$$
