
     RDKit          3D

  5  0  0  0  0  0  0  0  0  0999 V2000
  -36.0354   32.1034  -21.0879 N   0  0  0  0  0 15  0  0  0  0  0  0
  -35.9810   30.9922  -22.0995 O   0  0  0  0  0 15  0  0  0  0  0  0
  -35.1690   31.3012  -21.5304 C   0  0  0  0  0 15  0  0  0  0  0  0
  -35.9001   32.0659  -21.3682 O   0  0  0  0  0 15  0  0  0  0  0  0
  -35.1091   31.1830  -22.0243 O   0  0  0  0  0 15  0  0  0  0  0  0
M  END
$$$$
