
     RDKit          3D

  7  0  0  0  0  0  0  0  0  0999 V2000
  -14.4441   -1.5638  -23.0372 O   0  0  0  0  0 15  0  0  0  0  0  0
  -13.8156   -1.3261  -23.3475 O   0  0  0  0  0 15  0  0  0  0  0  0
  -15.2828   -2.3524  -22.8456 O   0  0  0  0  0 15  0  0  0  0  0  0
  -14.3908   -2.6907  -21.9368 O   0  0  0  0  0 15  0  0  0  0  0  0
  -15.2663   -0.0142  -23.9048 C   0  0  0  0  0 15  0  0  0  0  0  0
  -14.5137   -2.3602  -21.1274 C   0  0  0  0  0 15  0  0  0  0  0  0
  -14.2272   -1.9709  -23.1714 O   0  0  0  0  0 15  0  0  0  0  0  0
M  END
$$$$
