
     RDKit          3D

  6  0  0  0  0  0  0  0  0  0999 V2000
   23.0347   31.6091  -13.0019 O   0  0  0  0  0 15  0  0  0  0  0  0
   22.5062   29.0871  -15.7803 O   0  0  0  0  0 15  0  0  0  0  0  0
   23.2547   31.8479  -14.3851 O   0  0  0  0  0 15  0  0  0  0  0  0
   22.5525   30.2781  -14.5705 C   0  0  0  0  0 15  0  0  0  0  0  0
   22.2249   28.5410  -16.3929 C   0  0  0  0  0 15  0  0  0  0  0  0
   23.9083   31.3766  -14.5742 O   0  0  0  0  0 15  0  0  0  0  0  0
M  END
$$$$
