
     RDKit          3D

 25 31  0  0  0  0  0  0  0  0999 V2000
   60.2573  -46.9887  114.1326 C   0  0  0  0  0  0  0  0  0  0  0  0
   59.4058  -46.9629  113.8682 C   0  0  0  0  0  0  0  0  0  0  0  0
   61.1774  -45.0496  114.4191 O   0  0  0  0  0  0  0  0  0  0  0  0
   59.8791  -48.4489  114.0170 C   0  0  0  0  0  0  0  0  0  0  0  0
   60.4704  -45.0243  115.5312 C   0  0  0  0  0  0  0  0  0  0  0  0
   58.9260  -44.4617  116.6322 O   0  0  0  0  0  0  0  0  0  0  0  0
   59.4925  -48.3819  114.1812 O   0  0  0  0  0  0  0  0  0  0  0  0
   60.2763  -45.9401  114.0603 N   0  0  0  0  0  0  0  0  0  0  0  0
   59.5258  -46.7577  114.2327 C   0  0  0  0  0  0  0  0  0  0  0  0
   60.5075  -45.8728  113.8614 N   0  0  0  0  0  0  0  0  0  0  0  0
   59.3306  -46.8239  114.1007 C   0  0  0  0  0  0  0  0  0  0  0  0
   59.6632  -48.0772  115.5751 C   0  0  0  0  0  0  0  0  0  0  0  0
   60.0455  -45.3947  113.7252 C   0  0  0  0  0  0  0  0  0  0  0  0
   60.1292  -47.4689  113.3881 O   0  0  0  0  0  0  0  0  0  0  0  0
   60.8963  -47.8846  113.5088 O   0  0  0  0  0  0  0  0  0  0  0  0
   60.8609  -46.2535  112.7289 C   0  0  0  0  0  0  0  0  0  0  0  0
   59.4669  -45.2224  113.5776 O   0  0  0  0  0  0  0  0  0  0  0  0
   60.2496  -46.5664  114.1044 P   0  0  0  0  0  0  0  0  0  0  0  0
   60.0712  -46.9220  114.9222 O   0  0  0  0  0  0  0  0  0  0  0  0
   60.2960  -46.5101  112.5266 O   0  0  0  0  0  0  0  0  0  0  0  0
   58.3244  -45.8019  115.5403 O   0  0  0  0  0  0  0  0  0  0  0  0
   59.4809  -47.0192  113.3973 P   0  0  0  0  0  0  0  0  0  0  0  0
   60.0987  -46.4288  114.5188 O   0  0  0  0  0  0  0  0  0  0  0  0
   61.1021  -45.6055  116.3813 O   0  0  0  0  0  0  0  0  0  0  0  0
   61.3191  -46.1076  113.2814 O   0  0  0  0  0  0  0  0  0  0  0  0
  9 11  1  0
  2 11  1  0
  8 10  1  0
  1 18  1  0
  4  7  1  0
  2  9  1  0
 18 23  1  0
  2 22  1  0
 13 17  1  0
  8 18  1  0
 19 23  1  0
 16 20  1  0
 10 13  1  0
  8 13  1  0
 16 25  1  0
 11 22  1  0
  9 18  1  0
  1  9  1  0
 10 18  1  0
 14 22  1  0
  1 19  1  0
 14 15  1  0
  1  2  1  0
  5 24  1  0
  4 15  1  0
 20 22  1  0
  3  5  1  0
  3 13  1  0
  7 12  1  0
  4 22  1  0
  4 12  1  0
M  END
$$$$
