
     RDKit          3D

 25 29  0  0  0  0  0  0  0  0999 V2000
    4.6941  -11.6638    9.8875 C   0  0  0  0  0  0  0  0  0  0  0  0
    5.9179  -11.4040   10.3436 C   0  0  0  0  0  0  0  0  0  0  0  0
    4.2747  -10.2391    9.1303 O   0  0  0  0  0  0  0  0  0  0  0  0
    4.0758  -11.6971    8.8411 C   0  0  0  0  0  0  0  0  0  0  0  0
    4.4573  -11.3500    8.6458 O   0  0  0  0  0  0  0  0  0  0  0  0
    5.8483  -11.1409    8.6151 C   0  0  0  0  0  0  0  0  0  0  0  0
    3.3486  -10.9162    8.8870 O   0  0  0  0  0  0  0  0  0  0  0  0
    4.6075  -12.8366    9.2080 C   0  0  0  0  0  0  0  0  0  0  0  0
    4.1990  -10.4162    9.6323 N   0  0  0  0  0  0  0  0  0  0  0  0
    4.0399  -13.9530   10.1706 C   0  0  0  0  0  0  0  0  0  0  0  0
    2.0093  -10.6923    9.9057 C   0  0  0  0  0  0  0  0  0  0  0  0
    5.2530  -12.1821    7.5740 O   0  0  0  0  0  0  0  0  0  0  0  0
    2.8686  -11.8784   10.0661 N   0  0  0  0  0  0  0  0  0  0  0  0
    4.3692  -12.0266   10.9635 C   0  0  0  0  0  0  0  0  0  0  0  0
    4.1360  -10.3671   10.6917 O   0  0  0  0  0  0  0  0  0  0  0  0
    2.9338  -12.4198   10.2459 O   0  0  0  0  0  0  0  0  0  0  0  0
    4.4225  -11.8152    8.7883 C   0  0  0  0  0  0  0  0  0  0  0  0
    2.2478  -10.2974    9.9587 O   0  0  0  0  0  0  0  0  0  0  0  0
    3.3071  -10.9486    8.5152 N   0  0  0  0  0  0  0  0  0  0  0  0
    3.8736  -12.1445    8.5552 C   0  0  0  0  0  0  0  0  0  0  0  0
    3.4936   -9.8256   10.1048 C   0  0  0  0  0  0  0  0  0  0  0  0
    4.1162  -11.7975    8.5647 C   0  0  0  0  0  0  0  0  0  0  0  0
    4.3663   -9.4080    8.0364 C   0  0  0  0  0  0  0  0  0  0  0  0
    4.6061  -10.1507   10.5341 C   0  0  0  0  0  0  0  0  0  0  0  0
    5.2342  -12.3000   11.7461 C   0  0  0  0  0  0  0  0  0  0  0  0
  4 22  1  0
  4 17  1  0
  7 19  1  0
 17 22  1  0
 20 22  1  0
 11 18  1  0
  5 17  1  0
  3  9  1  0
 15 24  1  0
  4  5  1  0
  4 20  1  0
 13 16  1  0
 17 20  1  0
  9 24  1  0
 15 21  1  0
  9 21  1  0
  3  7  1  0
 19 22  1  0
  1 14  1  0
 14 25  1  0
  8 20  1  0
 21 24  1  0
  1  2  1  0
 18 21  1  0
  1  8  1  0
 11 13  1  0
  8 10  1  0
  6 12  1  0
  1 24  1  0
M  END
$$$$
