
     RDKit          3D

 23 29  0  0  0  0  0  0  0  0999 V2000
  101.8291    6.3496  -93.1524 C   0  0  0  0  0  0  0  0  0  0  0  0
   99.9330    5.8162  -90.4626 O   0  0  0  0  0  0  0  0  0  0  0  0
   99.9885    6.8240  -91.0672 C   0  0  0  0  0  0  0  0  0  0  0  0
  103.1178    6.4813  -92.5224 O   0  0  0  0  0  0  0  0  0  0  0  0
  101.2548    5.2646  -90.0287 C   0  0  0  0  0  0  0  0  0  0  0  0
  101.7744    4.7699  -91.1260 O   0  0  0  0  0  0  0  0  0  0  0  0
  101.7266    4.6541  -90.9044 C   0  0  0  0  0  0  0  0  0  0  0  0
  102.7188    7.0186  -90.0816 N   0  0  0  0  0  0  0  0  0  0  0  0
  100.7913    4.3403  -90.9863 C   0  0  0  0  0  0  0  0  0  0  0  0
  101.8288    6.5239  -90.9727 N   0  0  0  0  0  0  0  0  0  0  0  0
  102.0127    6.4414  -93.3719 C   0  0  0  0  0  0  0  0  0  0  0  0
  100.8226    9.0716  -89.4394 C   0  0  0  0  0  0  0  0  0  0  0  0
  100.7672    7.0260  -90.6480 N   0  0  0  0  0  0  0  0  0  0  0  0
  102.6852    6.9551  -92.4061 N   0  0  0  0  0  0  0  0  0  0  0  0
  103.7420    6.8362  -92.6596 C   0  0  0  0  0  0  0  0  0  0  0  0
  101.4514    6.9714  -90.9129 N   0  0  0  0  0  0  0  0  0  0  0  0
  102.3489    5.0932  -91.6660 C   0  0  0  0  0  0  0  0  0  0  0  0
  101.4888    6.3011  -92.5092 C   0  0  0  0  0  0  0  0  0  0  0  0
  103.3493    8.1851  -90.4659 O   0  0  0  0  0  0  0  0  0  0  0  0
  100.9567    5.2715  -92.6545 P   0  0  0  0  0  0  0  0  0  0  0  0
  101.6441    7.1191  -91.0069 O   0  0  0  0  0  0  0  0  0  0  0  0
  101.8190    4.5457  -94.0441 O   0  0  0  0  0  0  0  0  0  0  0  0
  100.7742    4.4924  -91.2482 O   0  0  0  0  0  0  0  0  0  0  0  0
  6  7  1  0
 16 21  1  0
  1 11  1  0
  9 23  1  0
 10 16  1  0
 10 21  1  0
  4 14  1  0
  1 18  1  0
  4 15  1  0
 13 16  1  0
  6 17  1  0
  3 13  1  0
  7  9  1  0
 11 18  1  0
  7 23  1  0
  7 17  1  0
 14 15  1  0
 18 20  1  0
  2  3  1  0
 10 13  1  0
 11 14  1  0
  8 19  1  0
  5  9  1  0
  1 20  1  0
  2  5  1  0
 17 18  1  0
 17 20  1  0
 11 20  1  0
 20 22  1  0
M  END
$$$$
