
     RDKit          3D

 12 17  0  0  0  0  0  0  0  0999 V2000
   -1.9219   77.6809    7.5180 C   0  0  0  0  0  0  0  0  0  0  0  0
   -2.8438   77.7979    6.9725 C   0  0  0  0  0  0  0  0  0  0  0  0
   -2.9383   77.3453    8.3122 C   0  0  0  0  0  0  0  0  0  0  0  0
   -2.6765   78.3577    5.8672 C   0  0  0  0  0  0  0  0  0  0  0  0
   -2.8957   75.7382    4.4803 C   0  0  0  0  0  0  0  0  0  0  0  0
   -3.0887   75.3583    3.7957 C   0  0  0  0  0  0  0  0  0  0  0  0
   -2.0296   75.3087    5.1684 C   0  0  0  0  0  0  0  0  0  0  0  0
   -3.1582   76.6406    5.9584 C   0  0  0  0  0  0  0  0  0  0  0  0
   -1.6942   76.6488    6.3322 C   0  0  0  0  0  0  0  0  0  0  0  0
   -2.7699   76.1340    5.7054 N   0  0  0  0  0  0  0  0  0  0  0  0
   -1.4155   75.2062    7.2162 C   0  0  0  0  0  0  0  0  0  0  0  0
   -2.4764   75.3369    4.0868 N   0  0  0  0  0  0  0  0  0  0  0  0
  6 12  1  0
  8 10  1  0
  5 12  1  0
  5  6  1  0
  1  2  1  0
  7 12  1  0
  5  7  1  0
  7 10  1  0
  2  4  1  0
  5 10  1  0
  1  3  1  0
  2  3  1  0
  8  9  1  0
  2  8  1  0
  1  9  1  0
  9 11  1  0
  6  7  1  0
M  END
$$$$
