
     RDKit          3D

  9 13  0  0  0  0  0  0  0  0999 V2000
    2.6599   29.1656   48.2186 C   0  0  0  0  0  0  0  0  0  0  0  0
    3.4534   28.3527   49.2156 C   0  0  0  0  0  0  0  0  0  0  0  0
    3.0726   28.4467   49.4432 O   0  0  0  0  0  0  0  0  0  0  0  0
    1.9083   27.6852   48.4770 C   0  0  0  0  0  0  0  0  0  0  0  0
    1.7082   27.4576   48.7552 O   0  0  0  0  0  0  0  0  0  0  0  0
    4.2043   27.8883   48.6314 O   0  0  0  0  0  0  0  0  0  0  0  0
    4.8602   28.6919   49.4589 C   0  0  0  0  0  0  0  0  0  0  0  0
    2.4323   29.0567   48.4686 C   0  0  0  0  0  0  0  0  0  0  0  0
    3.2994   28.0420   48.3915 C   0  0  0  0  0  0  0  0  0  0  0  0
  1  2  1  0
  1  4  1  0
  1  8  1  0
  1  9  1  0
  2  4  1  0
  2  7  1  0
  2  9  1  0
  3  4  1  0
  3  5  1  0
  4  9  1  0
  5  8  1  0
  6  7  1  0
  6  8  1  0
M  END
$$$$
