
     RDKit          3D

  6  7  0  0  0  0  0  0  0  0999 V2000
   -8.4178  -63.8947   16.6228 C   0  0  0  0  0  0  0  0  0  0  0  0
   -7.6002  -62.4258   16.7272 N   0  0  0  0  0  0  0  0  0  0  0  0
   -8.4986  -61.4303   16.5571 N   0  0  0  0  0  0  0  0  0  0  0  0
   -9.0936  -63.9017   15.8759 S   0  0  0  0  0  0  0  0  0  0  0  0
   -7.4342  -62.9856   16.7716 C   0  0  0  0  0  0  0  0  0  0  0  0
   -7.6138  -62.3117   17.4582 C   0  0  0  0  0  0  0  0  0  0  0  0
  2  5  1  0
  2  6  1  0
  5  6  1  0
  1  4  1  0
  1  5  1  0
  2  3  1  0
  3  6  1  0
M  END
$$$$
