
     RDKit          3D

  5  0  0  0  0  0  0  0  0  0999 V2000
  -13.2071  -26.4195    0.4154 O   0  0  0  0  0 15  0  0  0  0  0  0
  -11.4357  -27.0207    1.3624 O   0  0  0  0  0 15  0  0  0  0  0  0
  -13.3297  -26.0786   -1.1399 O   0  0  0  0  0 15  0  0  0  0  0  0
  -14.5842  -26.3251   -1.8192 O   0  0  0  0  0 15  0  0  0  0  0  0
  -14.3599  -27.2284   -0.8448 C   0  0  0  0  0 15  0  0  0  0  0  0
M  END
$$$$
