
     RDKit          3D

 16 22  0  0  0  0  0  0  0  0999 V2000
   22.7327  -51.6433   52.1210 C   0  0  0  0  0  0  0  0  0  0  0  0
   24.9359  -50.6547   49.1530 C   0  0  0  0  0  0  0  0  0  0  0  0
   21.2583  -50.9055   53.1255 C   0  0  0  0  0  0  0  0  0  0  0  0
   22.4560  -49.9456   53.5036 C   0  0  0  0  0  0  0  0  0  0  0  0
   21.4096  -51.1360   52.7735 C   0  0  0  0  0  0  0  0  0  0  0  0
   22.2331  -49.7493   52.5878 C   0  0  0  0  0  0  0  0  0  0  0  0
   23.3681  -50.1909   52.0528 O   0  0  0  0  0  0  0  0  0  0  0  0
   20.2404  -50.6510   52.1600 O   0  0  0  0  0  0  0  0  0  0  0  0
   21.5211  -51.4145   51.3312 C   0  0  0  0  0  0  0  0  0  0  0  0
   20.9085  -51.7480   52.1901 O   0  0  0  0  0  0  0  0  0  0  0  0
   21.4037  -50.3385   51.9679 C   0  0  0  0  0  0  0  0  0  0  0  0
   22.0062  -49.6769   53.1744 C   0  0  0  0  0  0  0  0  0  0  0  0
   22.1029  -49.6900   53.4447 C   0  0  0  0  0  0  0  0  0  0  0  0
   23.4943  -49.5590   52.2361 C   0  0  0  0  0  0  0  0  0  0  0  0
   23.1613  -51.3930   52.2304 O   0  0  0  0  0  0  0  0  0  0  0  0
   22.1486  -49.4367   52.5805 O   0  0  0  0  0  0  0  0  0  0  0  0
 12 13  1  0
  6 16  1  0
  4 13  1  0
  3  5  1  0
  1 15  1  0
  4 12  1  0
  6 12  1  0
 12 16  1  0
  7 14  1  0
  6 13  1  0
  4  6  1  0
  5 10  1  0
  9 10  1  0
  5 11  1  0
  8 11  1  0
  7 15  1  0
  9 11  1  0
  3 11  1  0
  5  8  1  0
  1  9  1  0
  3 13  1  0
  3  4  1  0
M  END
$$$$
