
     RDKit          3D

 21 28  0  0  0  0  0  0  0  0999 V2000
   33.2996   58.9845   35.3222 C   0  0  0  0  0  0  0  0  0  0  0  0
   32.4448   58.9028   35.8936 C   0  0  0  0  0  0  0  0  0  0  0  0
   32.6914   59.1279   34.7566 C   0  0  0  0  0  0  0  0  0  0  0  0
   33.7802   59.1227   33.7922 C   0  0  0  0  0  0  0  0  0  0  0  0
   32.2806   58.4938   34.7195 C   0  0  0  0  0  0  0  0  0  0  0  0
   33.2443   59.0910   33.7714 C   0  0  0  0  0  0  0  0  0  0  0  0
   31.9222   58.3601   34.8891 C   0  0  0  0  0  0  0  0  0  0  0  0
   33.8165   58.6587   34.8159 C   0  0  0  0  0  0  0  0  0  0  0  0
   31.4804   58.9060   36.6724 C   0  0  0  0  0  0  0  0  0  0  0  0
   33.1178   59.6626   34.2788 O   0  0  0  0  0  0  0  0  0  0  0  0
   31.4807   59.1477   34.4522 O   0  0  0  0  0  0  0  0  0  0  0  0
   32.7242   56.9440   34.9377 O   0  0  0  0  0  0  0  0  0  0  0  0
   32.3588   57.4704   36.6269 O   0  0  0  0  0  0  0  0  0  0  0  0
   32.2964   58.6936   35.3687 C   0  0  0  0  0  0  0  0  0  0  0  0
   31.8711   59.8817   34.2357 C   0  0  0  0  0  0  0  0  0  0  0  0
   32.2969   60.1732   35.6456 C   0  0  0  0  0  0  0  0  0  0  0  0
   34.4172   59.9427   33.7086 C   0  0  0  0  0  0  0  0  0  0  0  0
   32.7820   59.7973   34.4546 C   0  0  0  0  0  0  0  0  0  0  0  0
   29.7618   56.4574   34.7899 C   0  0  0  0  0  0  0  0  0  0  0  0
   33.0129   58.6147   34.8381 O   0  0  0  0  0  0  0  0  0  0  0  0
   33.1896   59.5755   34.9210 O   0  0  0  0  0  0  0  0  0  0  0  0
 10 18  1  0
  5  7  1  0
  4  6  1  0
  2 14  1  0
  3 20  1  0
 10 21  1  0
 18 21  1  0
  1 20  1  0
  5 14  1  0
  7 14  1  0
  3 18  1  0
  3  5  1  0
  1  8  1  0
  1  3  1  0
 11 15  1  0
 15 18  1  0
  7 11  1  0
  1  2  1  0
  4 17  1  0
  4  8  1  0
  2  9  1  0
  2  5  1  0
  6  8  1  0
  6 17  1  0
 15 16  1  0
 14 16  1  0
  7 12  1  0
  6 15  1  0
M  END
$$$$
