
     RDKit          3D

  9  0  0  0  0  0  0  0  0  0999 V2000
   -5.8408   11.6647   15.6870 C   0  0  0  0  0 15  0  0  0  0  0  0
   -5.2843   10.6738   17.0752 C   0  0  0  0  0 15  0  0  0  0  0  0
   -6.1293   11.7411   17.3664 O   0  0  0  0  0 15  0  0  0  0  0  0
   -4.7734   10.5570   17.4902 O   0  0  0  0  0 15  0  0  0  0  0  0
   -6.4371   11.0242   17.2005 O   0  0  0  0  0 15  0  0  0  0  0  0
   -4.1569   10.4561   16.0023 C   0  0  0  0  0 15  0  0  0  0  0  0
   -4.3188   11.5145   15.0315 C   0  0  0  0  0 15  0  0  0  0  0  0
   -5.4465   11.6428   17.3212 C   0  0  0  0  0 15  0  0  0  0  0  0
   -5.3516   11.5280   18.3872 C   0  0  0  0  0 15  0  0  0  0  0  0
M  END
$$$$
