
     RDKit          3D

  5  0  0  0  0  0  0  0  0  0999 V2000
   45.2561   14.1608   17.8969 O   0  0  0  0  0 15  0  0  0  0  0  0
   45.6872   15.3162   15.9425 C   0  0  0  0  0 15  0  0  0  0  0  0
   43.7787   12.3769   17.5987 O   0  0  0  0  0 15  0  0  0  0  0  0
   43.4145   13.1940   15.4990 O   0  0  0  0  0 15  0  0  0  0  0  0
   43.4569   13.0158   17.1598 C   0  0  0  0  0 15  0  0  0  0  0  0
M  END
$$$$
