
     RDKit          3D

 11 11  0  0  0  0  0  0  0  0999 V2000
   31.6974   -9.1212  -71.3352 C   0  0  0  0  0  0  0  0  0  0  0  0
   31.0782   -6.1970  -72.6191 N   0  0  0  0  0  0  0  0  0  0  0  0
   32.9226   -9.5339  -72.0589 C   0  0  0  0  0  0  0  0  0  0  0  0
   31.9846   -6.6588  -72.3428 C   0  0  0  0  0  0  0  0  0  0  0  0
   32.0765   -6.5826  -73.0363 C   0  0  0  0  0  0  0  0  0  0  0  0
   33.9119   -6.1435  -74.2485 C   0  0  0  0  0  0  0  0  0  0  0  0
   33.5273   -7.4913  -71.7101 Cl  0  0  0  0  0  0  0  0  0  0  0  0
   31.0403   -7.3342  -72.7526 C   0  0  0  0  0  0  0  0  0  0  0  0
   31.2624   -6.9036  -71.7354 N   0  0  0  0  0  0  0  0  0  0  0  0
   29.9790   -8.2747  -72.6274 C   0  0  0  0  0  0  0  0  0  0  0  0
   33.5879   -8.3971  -72.7847 O   0  0  0  0  0  0  0  0  0  0  0  0
  4  5  1  0
  4  9  1  0
  2  4  1  0
  8  9  1  0
  2  8  1  0
  2  9  1  0
  4  8  1  0
  5  8  1  0
  7 11  1  0
  1  3  1  0
  3 11  1  0
M  END
$$$$
