
     RDKit          3D

 27 35  0  0  0  0  0  0  0  0999 V2000
   95.9064   45.8086   72.9243 C   0  0  0  0  0  0  0  0  0  0  0  0
   94.2751   48.2010   72.7949 O   0  0  0  0  0  0  0  0  0  0  0  0
   95.2382   48.1369   70.6227 C   0  0  0  0  0  0  0  0  0  0  0  0
   95.1816   48.4364   76.0821 O   0  0  0  0  0  0  0  0  0  0  0  0
   94.6167   47.3073   73.8941 C   0  0  0  0  0  0  0  0  0  0  0  0
   94.3353   48.7825   73.4288 O   0  0  0  0  0  0  0  0  0  0  0  0
   95.6166   48.1924   72.9599 C   0  0  0  0  0  0  0  0  0  0  0  0
   95.2583   46.7393   72.8344 N   0  0  0  0  0  0  0  0  0  0  0  0
   93.3319   45.3902   71.7969 C   0  0  0  0  0  0  0  0  0  0  0  0
   94.5306   49.0376   72.9072 N   0  0  0  0  0  0  0  0  0  0  0  0
   94.1199   46.9992   72.2681 C   0  0  0  0  0  0  0  0  0  0  0  0
   95.3774   46.9859   72.1895 C   0  0  0  0  0  0  0  0  0  0  0  0
   95.5902   49.0241   74.3190 N   0  0  0  0  0  0  0  0  0  0  0  0
   96.1061   47.9212   73.4949 N   0  0  0  0  0  0  0  0  0  0  0  0
   96.1712   48.3435   72.7449 C   0  0  0  0  0  0  0  0  0  0  0  0
   96.8296   47.2571   72.5192 N   0  0  0  0  0  0  0  0  0  0  0  0
   96.0092   45.8410   72.9460 C   0  0  0  0  0  0  0  0  0  0  0  0
   93.5351   46.0890   72.5218 C   0  0  0  0  0  0  0  0  0  0  0  0
   94.8520   48.3961   72.6323 O   0  0  0  0  0  0  0  0  0  0  0  0
   94.7772   48.1223   72.6678 P   0  0  0  0  0  0  0  0  0  0  0  0
   95.5820   48.1285   70.5303 O   0  0  0  0  0  0  0  0  0  0  0  0
   94.4523   48.2008   72.3274 O   0  0  0  0  0  0  0  0  0  0  0  0
   95.6339   48.9591   73.0100 O   0  0  0  0  0  0  0  0  0  0  0  0
   95.1032   46.3851   74.1523 P   0  0  0  0  0  0  0  0  0  0  0  0
   96.2198   47.5790   72.5519 O   0  0  0  0  0  0  0  0  0  0  0  0
   95.0206   47.0575   74.3076 O   0  0  0  0  0  0  0  0  0  0  0  0
   94.1972   46.7341   72.4703 O   0  0  0  0  0  0  0  0  0  0  0  0
  1 17  1  0
 19 20  1  0
 11 27  1  0
  3 21  1  0
 20 22  1  0
  2 22  1  0
  2 20  1  0
  6 10  1  0
  7 15  1  0
  5 26  1  0
 16 25  1  0
 24 26  1  0
  8 12  1  0
 10 19  1  0
  7 23  1  0
  7 14  1  0
 15 25  1  0
 15 23  1  0
 14 15  1  0
  7 20  1  0
 18 27  1  0
 10 20  1  0
  9 18  1  0
  5 24  1  0
 11 18  1  0
  1  8  1  0
  8 17  1  0
 11 12  1  0
 14 16  1  0
  1 12  1  0
 12 17  1  0
  6 13  1  0
  1 24  1  0
 17 24  1  0
  5 11  1  0
M  END
$$$$
