
     RDKit          3D

 21 24  0  0  0  0  0  0  0  0999 V2000
   64.5068  100.3804   26.2622 C   0  0  0  0  0  0  0  0  0  0  0  0
   64.6156   98.0254   26.8993 C   0  0  0  0  0  0  0  0  0  0  0  0
   65.1923   98.9239   28.6666 C   0  0  0  0  0  0  0  0  0  0  0  0
   63.7973   99.1334   27.1574 C   0  0  0  0  0  0  0  0  0  0  0  0
   65.6696   96.4701   28.5697 C   0  0  0  0  0  0  0  0  0  0  0  0
   63.7782  100.1213   25.1909 O   0  0  0  0  0  0  0  0  0  0  0  0
   62.7359   96.1250   27.9247 O   0  0  0  0  0  0  0  0  0  0  0  0
   65.6959   98.3582   28.6951 O   0  0  0  0  0  0  0  0  0  0  0  0
   64.6442   97.4838   27.0544 O   0  0  0  0  0  0  0  0  0  0  0  0
   64.8259   98.1580   29.2877 C   0  0  0  0  0  0  0  0  0  0  0  0
   64.7155   97.8878   28.8927 O   0  0  0  0  0  0  0  0  0  0  0  0
   62.9589  100.1591   28.2645 O   0  0  0  0  0  0  0  0  0  0  0  0
   64.1644   99.8973   28.8540 C   0  0  0  0  0  0  0  0  0  0  0  0
   65.2093   99.2370   29.6096 C   0  0  0  0  0  0  0  0  0  0  0  0
   65.3044   99.2137   28.6001 C   0  0  0  0  0  0  0  0  0  0  0  0
   63.3778   98.7423   28.2454 C   0  0  0  0  0  0  0  0  0  0  0  0
   66.1066   99.2954   27.8436 C   0  0  0  0  0  0  0  0  0  0  0  0
   63.4849   98.9457   28.4722 C   0  0  0  0  0  0  0  0  0  0  0  0
   62.8181   98.9295   27.9154 N   0  0  0  0  0  0  0  0  0  0  0  0
   65.2979   99.9210   29.3388 O   0  0  0  0  0  0  0  0  0  0  0  0
   64.9574  100.8685   27.4777 O   0  0  0  0  0  0  0  0  0  0  0  0
  3 15  1  0
 16 18  1  0
 10 11  1  0
  2  9  1  0
 16 19  1  0
 14 20  1  0
  3  8  1  0
 18 19  1  0
  8 15  1  0
  3 14  1  0
 14 15  1  0
 15 20  1  0
  3 10  1  0
 10 14  1  0
  4 16  1  0
 13 18  1  0
  4 19  1  0
  1  6  1  0
 12 18  1  0
 12 13  1  0
  1 21  1  0
  2  4  1  0
 13 16  1  0
  1  4  1  0
M  END
$$$$
