
     RDKit          3D

  4  4  0  0  0  0  0  0  0  0999 V2000
   -2.8713  -28.5301  -13.0163 O   0  0  0  0  0  0  0  0  0  0  0  0
   -2.3466  -29.4269  -11.8971 O   0  0  0  0  0  0  0  0  0  0  0  0
   -2.7754  -30.6936  -12.2664 C   0  0  0  0  0  0  0  0  0  0  0  0
   -2.1193  -29.7397  -11.8885 C   0  0  0  0  0  0  0  0  0  0  0  0
  1  2  1  0
  1  3  1  0
  2  3  1  0
  3  4  1  0
M  END
$$$$
