
     RDKit          3D

 18 28  0  0  0  0  0  0  0  0999 V2000
   20.1185   50.9885   23.6678 C   0  0  0  0  0  0  0  0  0  0  0  0
   19.4630   53.9771   22.2526 C   0  0  0  0  0  0  0  0  0  0  0  0
   19.6604   51.4823   22.7376 C   0  0  0  0  0  0  0  0  0  0  0  0
   19.6155   52.3779   22.6799 C   0  0  0  0  0  0  0  0  0  0  0  0
   18.6835   52.6761   20.2194 C   0  0  0  0  0  0  0  0  0  0  0  0
   19.7597   53.3480   21.4981 C   0  0  0  0  0  0  0  0  0  0  0  0
   20.6136   51.6919   20.7374 C   0  0  0  0  0  0  0  0  0  0  0  0
   20.1367   53.3115   22.5630 O   0  0  0  0  0  0  0  0  0  0  0  0
   20.8495   52.1379   20.8686 O   0  0  0  0  0  0  0  0  0  0  0  0
   20.7729   51.1379   23.2861 C   0  0  0  0  0  0  0  0  0  0  0  0
   19.1381   52.4128   22.8636 C   0  0  0  0  0  0  0  0  0  0  0  0
   18.9865   51.5598   21.7821 C   0  0  0  0  0  0  0  0  0  0  0  0
   20.8557   52.6383   21.9853 C   0  0  0  0  0  0  0  0  0  0  0  0
   20.0622   53.7834   20.9938 C   0  0  0  0  0  0  0  0  0  0  0  0
   19.7680   52.1451   21.5516 C   0  0  0  0  0  0  0  0  0  0  0  0
   19.8659   53.5368   21.8521 C   0  0  0  0  0  0  0  0  0  0  0  0
   19.7841   51.5490   20.3442 C   0  0  0  0  0  0  0  0  0  0  0  0
   20.0647   52.0614   20.3494 C   0  0  0  0  0  0  0  0  0  0  0  0
  6 16  1  0
  4 11  1  0
  7  9  1  0
 17 18  1  0
  2 16  1  0
  6 14  1  0
  7 18  1  0
  1 10  1  0
  8 16  1  0
  3  4  1  0
 14 16  1  0
  7 17  1  0
  9 18  1  0
  2  8  1  0
 12 15  1  0
  2  6  1  0
  3 11  1  0
  1  3  1  0
  4 15  1  0
  3 12  1  0
  6 15  1  0
 15 18  1  0
  4 12  1  0
 11 12  1  0
  2 14  1  0
  5 17  1  0
  7 13  1  0
 13 14  1  0
M  END
$$$$
