
     RDKit          3D

  3  2  0  0  0  0  0  0  0  0999 V2000
    6.2753  -13.7581  -14.1976 N   0  0  0  0  0  0  0  0  0  0  0  0
    6.8326  -11.8807  -14.9764 O   0  0  0  0  0  0  0  0  0  0  0  0
    7.3502  -13.6135  -14.6062 C   0  0  0  0  0  0  0  0  0  0  0  0
  1  3  1  0
  2  3  1  0
M  END
$$$$
