
     RDKit          3D

 12 12  0  0  0  0  0  0  0  0999 V2000
   28.6465   12.9828   19.3762 O   0  0  0  0  0  0  0  0  0  0  0  0
   26.8195   14.0100   18.9602 C   0  0  0  0  0  0  0  0  0  0  0  0
   24.5605   15.5678   19.0390 C   0  0  0  0  0  0  0  0  0  0  0  0
   27.1298   14.5543   19.9896 O   0  0  0  0  0  0  0  0  0  0  0  0
   26.9576   13.5788   19.3403 C   0  0  0  0  0  0  0  0  0  0  0  0
   26.3169   15.1035   18.8496 C   0  0  0  0  0  0  0  0  0  0  0  0
   26.2125   13.8104   19.6963 C   0  0  0  0  0  0  0  0  0  0  0  0
   27.1333   13.7765   19.3664 C   0  0  0  0  0  0  0  0  0  0  0  0
   26.9038   14.6972   21.5745 O   0  0  0  0  0  0  0  0  0  0  0  0
   26.4266   13.6721   19.9837 C   0  0  0  0  0  0  0  0  0  0  0  0
   26.6089   14.1045   19.5306 O   0  0  0  0  0  0  0  0  0  0  0  0
   26.0621   12.5083   18.0750 O   0  0  0  0  0  0  0  0  0  0  0  0
  5  8  1  0
  7 10  1  0
  7 11  1  0
  2  8  1  0
  2  5  1  0
  2 11  1  0
  5 10  1  0
  5  7  1  0
  8 10  1  0
  2  7  1  0
  4  8  1  0
  4 10  1  0
M  END
$$$$
