
     RDKit          3D

 37 48  0  0  0  0  0  0  0  0999 V2000
   21.1744   10.6548   33.2429 C   0  0  0  0  0  0  0  0  0  0  0  0
   24.0819   10.9619   30.9406 C   0  0  0  0  0  0  0  0  0  0  0  0
   24.6986    8.9330   33.7928 O   0  0  0  0  0  0  0  0  0  0  0  0
   22.3869    9.6262   31.5899 C   0  0  0  0  0  0  0  0  0  0  0  0
   23.8118    8.5728   33.6972 O   0  0  0  0  0  0  0  0  0  0  0  0
   22.7508    9.2278   32.4690 C   0  0  0  0  0  0  0  0  0  0  0  0
   21.3780   10.9820   32.3213 O   0  0  0  0  0  0  0  0  0  0  0  0
   23.6514   10.0546   31.4912 N   0  0  0  0  0  0  0  0  0  0  0  0
   22.0498    9.0196   30.9674 C   0  0  0  0  0  0  0  0  0  0  0  0
   22.6958    9.2573   32.3622 N   0  0  0  0  0  0  0  0  0  0  0  0
   23.4265    9.3274   32.4667 C   0  0  0  0  0  0  0  0  0  0  0  0
   23.0907    8.8922   31.5991 C   0  0  0  0  0  0  0  0  0  0  0  0
   20.9287    7.8698   32.9718 C   0  0  0  0  0  0  0  0  0  0  0  0
   21.6951   10.0901   32.0500 O   0  0  0  0  0  0  0  0  0  0  0  0
   21.2018    8.0429   32.0463 N   0  0  0  0  0  0  0  0  0  0  0  0
   22.3393   10.7034   32.1639 C   0  0  0  0  0  0  0  0  0  0  0  0
   24.0904    9.1308   32.4701 N   0  0  0  0  0  0  0  0  0  0  0  0
   24.6308    9.0762   30.6611 N   0  0  0  0  0  0  0  0  0  0  0  0
   20.0892    9.1821   30.8020 C   0  0  0  0  0  0  0  0  0  0  0  0
   23.4750    7.5987   31.1956 O   0  0  0  0  0  0  0  0  0  0  0  0
   23.5098    6.2277   28.7733 P   0  0  0  0  0  0  0  0  0  0  0  0
   22.5979    9.6519   31.1987 O   0  0  0  0  0  0  0  0  0  0  0  0
   21.7865    7.7961   34.4800 O   0  0  0  0  0  0  0  0  0  0  0  0
   23.9490   10.0724   31.1107 O   0  0  0  0  0  0  0  0  0  0  0  0
   22.2010    9.6645   30.8418 N   0  0  0  0  0  0  0  0  0  0  0  0
   23.7413    9.4400   32.1662 C   0  0  0  0  0  0  0  0  0  0  0  0
   22.6762   10.0634   31.2116 O   0  0  0  0  0  0  0  0  0  0  0  0
   22.8135    9.3844   31.6711 C   0  0  0  0  0  0  0  0  0  0  0  0
   22.5144   10.8426   31.4411 C   0  0  0  0  0  0  0  0  0  0  0  0
   22.1500   10.1351   30.7831 C   0  0  0  0  0  0  0  0  0  0  0  0
   21.8466   11.4824   32.2096 C   0  0  0  0  0  0  0  0  0  0  0  0
   22.9110   10.2963   31.2091 C   0  0  0  0  0  0  0  0  0  0  0  0
   22.5024   11.2623   31.4673 C   0  0  0  0  0  0  0  0  0  0  0  0
   23.6978    8.6637   32.7600 C   0  0  0  0  0  0  0  0  0  0  0  0
   23.7411    8.9650   31.7257 C   0  0  0  0  0  0  0  0  0  0  0  0
   21.5331    9.9155   32.1927 O   0  0  0  0  0  0  0  0  0  0  0  0
   23.0271   10.1299   33.3489 O   0  0  0  0  0  0  0  0  0  0  0  0
  6 10  1  0
 14 36  1  0
 27 32  1  0
 22 27  1  0
 29 33  1  0
  4 22  1  0
 11 26  1  0
 25 30  1  0
  8 24  1  0
  4 28  1  0
 17 26  1  0
 12 28  1  0
 26 35  1  0
 12 35  1  0
  9 25  1  0
 17 34  1  0
  6 11  1  0
 11 17  1  0
  7 31  1  0
 10 28  1  0
 29 32  1  0
 10 11  1  0
 16 29  1  0
  4 25  1  0
  6 28  1  0
  8 32  1  0
 30 32  1  0
 14 16  1  0
 16 33  1  0
  2 24  1  0
  8 26  1  0
 16 31  1  0
  4  9  1  0
  5 34  1  0
  3  5  1  0
 13 15  1  0
  6 12  1  0
  1  7  1  0
 31 33  1  0
 29 30  1  0
 34 35  1  0
  9 30  1  0
  9 12  1  0
  1 36  1  0
 18 35  1  0
  3 34  1  0
  1 31  1  0
  2 33  1  0
M  END
$$$$
