
     RDKit          3D

  6  5  0  0  0  0  0  0  0  0999 V2000
    5.4276   12.4722   32.0105 C   0  0  0  0  0  0  0  0  0  0  0  0
    7.6948   11.4348   31.4285 N   0  0  0  0  0  0  0  0  0  0  0  0
    6.9208   12.3350   29.5475 N   0  0  0  0  0  0  0  0  0  0  0  0
    7.0245   11.7283   30.5109 S   0  0  0  0  0  0  0  0  0  0  0  0
    5.6580   10.7262   29.6319 C   0  0  0  0  0  0  0  0  0  0  0  0
    7.3838   10.8188   30.7501 C   0  0  0  0  0  0  0  0  0  0  0  0
  2  6  1  0
  4  6  1  0
  3  4  1  0
  2  4  1  0
  4  5  1  0
M  END
$$$$
