
     RDKit          3D

 13  0  0  0  0  0  0  0  0  0999 V2000
  -17.6221   22.8208   68.1289 O   0  0  0  0  0 15  0  0  0  0  0  0
  -17.7519   22.3285   67.9935 C   0  0  0  0  0 15  0  0  0  0  0  0
  -17.5463   23.1308   68.5213 C   0  0  0  0  0 15  0  0  0  0  0  0
  -16.9387   20.6042   69.9572 C   0  0  0  0  0 15  0  0  0  0  0  0
  -15.8710   22.4739   69.0138 O   0  0  0  0  0 15  0  0  0  0  0  0
  -16.6717   23.0663   70.1487 O   0  0  0  0  0 15  0  0  0  0  0  0
  -16.5698   22.8636   70.2793 O   0  0  0  0  0 15  0  0  0  0  0  0
  -17.4744   20.1828   70.1696 C   0  0  0  0  0 15  0  0  0  0  0  0
  -17.6933   23.0722   67.9314 C   0  0  0  0  0 15  0  0  0  0  0  0
  -17.5972   22.3162   69.8552 O   0  0  0  0  0 15  0  0  0  0  0  0
  -17.2175   21.2313   68.8368 C   0  0  0  0  0 15  0  0  0  0  0  0
  -15.6843   22.3939   69.4072 C   0  0  0  0  0 15  0  0  0  0  0  0
  -15.0724   20.8210   69.9340 O   0  0  0  0  0 15  0  0  0  0  0  0
M  END
$$$$
