
     RDKit          3D

 17 22  0  0  0  0  0  0  0  0999 V2000
    4.2181   26.0383   12.2848 N   0  0  0  0  0  0  0  0  0  0  0  0
    2.7936   24.7090   12.8478 C   0  0  0  0  0  0  0  0  0  0  0  0
    2.8135   24.8584   12.1366 C   0  0  0  0  0  0  0  0  0  0  0  0
    4.5000   26.4029   13.5223 C   0  0  0  0  0  0  0  0  0  0  0  0
    4.4633   24.4192   10.5436 C   0  0  0  0  0  0  0  0  0  0  0  0
    3.5669   25.9202   10.8978 Cl  0  0  0  0  0  0  0  0  0  0  0  0
    1.7365   24.8002   10.6542 C   0  0  0  0  0  0  0  0  0  0  0  0
    2.6776   25.1691   12.2978 C   0  0  0  0  0  0  0  0  0  0  0  0
    3.9627   24.9795   12.3702 C   0  0  0  0  0  0  0  0  0  0  0  0
    3.8177   25.3472   11.6874 C   0  0  0  0  0  0  0  0  0  0  0  0
    2.7177   25.5182   11.1528 C   0  0  0  0  0  0  0  0  0  0  0  0
    1.6649   25.8570   12.0588 C   0  0  0  0  0  0  0  0  0  0  0  0
    3.1471   25.4092   12.8246 C   0  0  0  0  0  0  0  0  0  0  0  0
    2.7613   25.4505   11.9228 C   0  0  0  0  0  0  0  0  0  0  0  0
    4.3664   26.5790   11.3220 N   0  0  0  0  0  0  0  0  0  0  0  0
    4.8553   25.5942   11.3377 O   0  0  0  0  0  0  0  0  0  0  0  0
    1.2289   25.1861   10.6984 C   0  0  0  0  0  0  0  0  0  0  0  0
  3  8  1  0
  8 14  1  0
  3 14  1  0
  7 17  1  0
  2  8  1  0
  2  3  1  0
  8 13  1  0
 11 14  1  0
  2 13  1  0
  9 10  1  0
  3 13  1  0
  6 11  1  0
 13 14  1  0
  1 10  1  0
  1  9  1  0
 15 16  1  0
  1 15  1  0
 10 16  1  0
 10 11  1  0
  2  9  1  0
  7 11  1  0
 12 17  1  0
M  END
$$$$
