
     RDKit          3D

  7  0  0  0  0  0  0  0  0  0999 V2000
   21.0990   11.3072   33.0760 O   0  0  0  0  0 15  0  0  0  0  0  0
   22.2931   10.3593   31.4097 O   0  0  0  0  0 15  0  0  0  0  0  0
   22.6423   10.0679   32.2451 O   0  0  0  0  0 15  0  0  0  0  0  0
   21.2678   11.7425   32.1490 C   0  0  0  0  0 15  0  0  0  0  0  0
   23.5385   10.9303   31.2331 O   0  0  0  0  0 15  0  0  0  0  0  0
   21.5717   10.6352   31.9724 C   0  0  0  0  0 15  0  0  0  0  0  0
   22.5407   10.7909   31.0423 C   0  0  0  0  0 15  0  0  0  0  0  0
M  END
$$$$
