
     RDKit          3D

 15 19  0  0  0  0  0  0  0  0999 V2000
   -0.0937   32.5606  -12.0667 C   0  0  0  0  0  0  0  0  0  0  0  0
   -1.8766   33.0715  -11.2286 C   0  0  0  0  0  0  0  0  0  0  0  0
   -0.8030   33.2422  -14.8691 C   0  0  0  0  0  0  0  0  0  0  0  0
   -2.2145   33.7719  -13.6120 C   0  0  0  0  0  0  0  0  0  0  0  0
   -1.5690   33.4521  -12.9921 C   0  0  0  0  0  0  0  0  0  0  0  0
   -1.2710   32.0649  -13.2692 C   0  0  0  0  0  0  0  0  0  0  0  0
   -1.2618   33.7251  -13.5018 C   0  0  0  0  0  0  0  0  0  0  0  0
   -0.5556   34.8903  -12.2366 C   0  0  0  0  0  0  0  0  0  0  0  0
   -0.7090   33.2029  -11.8813 N   0  0  0  0  0  0  0  0  0  0  0  0
    0.3998   32.5193  -12.7948 C   0  0  0  0  0  0  0  0  0  0  0  0
    0.0810   35.1537  -12.7713 C   0  0  0  0  0  0  0  0  0  0  0  0
    0.6568   32.3976  -13.9664 C   0  0  0  0  0  0  0  0  0  0  0  0
   -0.7407   33.4264  -11.7939 C   0  0  0  0  0  0  0  0  0  0  0  0
   -1.2078   35.3381  -12.7026 C   0  0  0  0  0  0  0  0  0  0  0  0
   -1.7835   34.3337  -14.2302 N   0  0  0  0  0  0  0  0  0  0  0  0
  9 13  1  0
  5  7  1  0
  8 11  1  0
  1 10  1  0
  1  9  1  0
  8 14  1  0
  4 15  1  0
  4  5  1  0
  4  7  1  0
  7 15  1  0
  1 13  1  0
 10 12  1  0
 11 14  1  0
  2 13  1  0
  2  9  1  0
  5  6  1  0
  5 13  1  0
  3  7  1  0
  3 15  1  0
M  END
$$$$
