
     RDKit          3D

  5  4  0  0  0  0  0  0  0  0999 V2000
    7.5774   12.0309   31.2965 C   0  0  0  0  0  0  0  0  0  0  0  0
    6.7962   12.9249   29.3693 O   0  0  0  0  0  0  0  0  0  0  0  0
    6.9002   12.3892   30.3643 O   0  0  0  0  0  0  0  0  0  0  0  0
    5.5336   11.0001   29.5647 C   0  0  0  0  0  0  0  0  0  0  0  0
    7.3389   10.9496   30.6987 C   0  0  0  0  0  0  0  0  0  0  0  0
  1  5  1  0
  2  4  1  0
  2  5  1  0
  3  5  1  0
M  END
$$$$
