
     RDKit          3D

 11  0  0  0  0  0  0  0  0  0999 V2000
   23.6720   19.1287   34.3675 O   0  0  0  0  0 15  0  0  0  0  0  0
   23.4706   21.2948   33.8782 C   0  0  0  0  0 15  0  0  0  0  0  0
   25.0334   19.7959   35.2819 C   0  0  0  0  0 15  0  0  0  0  0  0
   23.7603   20.1765   33.6435 C   0  0  0  0  0 15  0  0  0  0  0  0
   24.5881   19.1942   34.1622 O   0  0  0  0  0 15  0  0  0  0  0  0
   25.5917   19.2967   34.1810 C   0  0  0  0  0 15  0  0  0  0  0  0
   24.5379   21.0099   32.3560 O   0  0  0  0  0 15  0  0  0  0  0  0
   23.8863   20.1927   33.9797 O   0  0  0  0  0 15  0  0  0  0  0  0
   22.9832   19.7843   32.7221 O   0  0  0  0  0 15  0  0  0  0  0  0
   24.6388   18.5978   34.8164 C   0  0  0  0  0 15  0  0  0  0  0  0
   23.3374   20.5830   33.2508 C   0  0  0  0  0 15  0  0  0  0  0  0
M  END
$$$$
