
     RDKit          3D

  5  0  0  0  0  0  0  0  0  0999 V2000
   33.1877   59.6380   35.1659 O   0  0  0  0  0 15  0  0  0  0  0  0
   33.1208   59.7243   33.6113 O   0  0  0  0  0 15  0  0  0  0  0  0
   31.8262   58.9603   34.7076 O   0  0  0  0  0 15  0  0  0  0  0  0
   33.7010   59.0015   34.7019 O   0  0  0  0  0 15  0  0  0  0  0  0
   31.3677   59.4512   36.5157 O   0  0  0  0  0 15  0  0  0  0  0  0
M  END
$$$$
