
     RDKit          3D

  6  0  0  0  0  0  0  0  0  0999 V2000
  101.1278    5.8874  -90.1702 O   0  0  0  0  0 15  0  0  0  0  0  0
  101.6578    5.2338  -91.2106 O   0  0  0  0  0 15  0  0  0  0  0  0
  101.6325    5.4818  -91.1203 C   0  0  0  0  0 15  0  0  0  0  0  0
  100.6908    5.0366  -91.2012 O   0  0  0  0  0 15  0  0  0  0  0  0
  102.2248    5.5398  -91.7543 O   0  0  0  0  0 15  0  0  0  0  0  0
  100.8551    5.7859  -92.7888 C   0  0  0  0  0 15  0  0  0  0  0  0
M  END
$$$$
