
     RDKit          3D

 33 49  0  0  0  0  0  0  0  0999 V2000
    7.5757    8.2251   23.7985 N   0  0  0  0  0  0  0  0  0  0  0  0
    6.3053    7.8589   22.6332 C   0  0  0  0  0  0  0  0  0  0  0  0
    7.5668    6.0045   21.9800 C   0  0  0  0  0  0  0  0  0  0  0  0
    9.9170    8.3723   23.3554 C   0  0  0  0  0  0  0  0  0  0  0  0
    7.4501    8.6940   22.2022 C   0  0  0  0  0  0  0  0  0  0  0  0
    7.7681    8.1241   21.3909 C   0  0  0  0  0  0  0  0  0  0  0  0
    6.0533    8.3134   23.2408 N   0  0  0  0  0  0  0  0  0  0  0  0
    7.9021    9.0613   21.9702 N   0  0  0  0  0  0  0  0  0  0  0  0
    6.7993    7.6587   22.4560 N   0  0  0  0  0  0  0  0  0  0  0  0
    9.0966    7.9414   23.6827 C   0  0  0  0  0  0  0  0  0  0  0  0
    7.4480    6.9042   22.6720 C   0  0  0  0  0  0  0  0  0  0  0  0
    6.8647    8.0929   22.4123 N   0  0  0  0  0  0  0  0  0  0  0  0
    8.4411    7.4371   23.7453 C   0  0  0  0  0  0  0  0  0  0  0  0
    6.8200    7.9499   22.1629 C   0  0  0  0  0  0  0  0  0  0  0  0
    7.5067    6.9868   22.2115 C   0  0  0  0  0  0  0  0  0  0  0  0
    6.4597    8.1392   23.2483 C   0  0  0  0  0  0  0  0  0  0  0  0
    9.0931    8.1252   22.5500 O   0  0  0  0  0  0  0  0  0  0  0  0
    8.4614    7.5003   20.1927 C   0  0  0  0  0  0  0  0  0  0  0  0
    8.0915    7.8746   21.2885 C   0  0  0  0  0  0  0  0  0  0  0  0
    8.8597    7.0967   22.4208 C   0  0  0  0  0  0  0  0  0  0  0  0
    8.5611    8.9263   23.8337 N   0  0  0  0  0  0  0  0  0  0  0  0
    9.1139    7.3301   22.0588 S   0  0  0  0  0  0  0  0  0  0  0  0
    6.4136    7.2339   24.2803 C   0  0  0  0  0  0  0  0  0  0  0  0
    8.6385    7.5963   22.4761 N   0  0  0  0  0  0  0  0  0  0  0  0
    8.5389    7.4672   21.0784 O   0  0  0  0  0  0  0  0  0  0  0  0
    5.1836    5.9313   21.6112 C   0  0  0  0  0  0  0  0  0  0  0  0
    7.1078    9.8174   22.7058 C   0  0  0  0  0  0  0  0  0  0  0  0
    6.6064    8.1895   23.4565 C   0  0  0  0  0  0  0  0  0  0  0  0
    5.4613    6.4067   21.7368 C   0  0  0  0  0  0  0  0  0  0  0  0
    5.3250    8.4590   22.4461 C   0  0  0  0  0  0  0  0  0  0  0  0
    7.7135    9.6648   22.2298 C   0  0  0  0  0  0  0  0  0  0  0  0
    5.9859    6.9577   21.4685 C   0  0  0  0  0  0  0  0  0  0  0  0
    6.7555    7.2610   23.0955 Cl  0  0  0  0  0  0  0  0  0  0  0  0
 16 28  1  0
 12 14  1  0
  9 14  1  0
  6 19  1  0
  9 12  1  0
  7 16  1  0
 11 15  1  0
 20 22  1  0
 20 24  1  0
  2  9  1  0
 26 29  1  0
  7 28  1  0
  5  8  1  0
 19 25  1  0
  2 12  1  0
  8 31  1  0
 22 24  1  0
  2 16  1  0
 17 24  1  0
  2 14  1  0
 27 31  1  0
 29 32  1  0
 10 13  1  0
 11 33  1  0
 18 25  1  0
 17 22  1  0
  5 14  1  0
  4 10  1  0
  5 31  1  0
  3 15  1  0
  1 28  1  0
  5  6  1  0
  7 30  1  0
  6  8  1  0
 10 21  1  0
  3 11  1  0
  1 13  1  0
  1 21  1  0
 18 19  1  0
 23 28  1  0
 26 32  1  0
 15 20  1  0
 16 23  1  0
 19 22  1  0
  6 15  1  0
 13 20  1  0
 13 21  1  0
 10 22  1  0
 11 22  1  0
M  END
$$$$
