
     RDKit          3D

  8  0  0  0  0  0  0  0  0  0999 V2000
  -12.3172   -8.2784   23.6142 C   0  0  0  0  0 15  0  0  0  0  0  0
  -13.0552   -7.3850   24.9274 C   0  0  0  0  0 15  0  0  0  0  0  0
  -13.5732   -8.2131   21.9967 O   0  0  0  0  0 15  0  0  0  0  0  0
  -12.2046   -8.6036   22.0692 O   0  0  0  0  0 15  0  0  0  0  0  0
  -11.8973   -6.3135   22.4902 C   0  0  0  0  0 15  0  0  0  0  0  0
  -11.7028   -9.0146   23.3530 C   0  0  0  0  0 15  0  0  0  0  0  0
  -12.4809   -6.4212   23.2817 C   0  0  0  0  0 15  0  0  0  0  0  0
  -12.6428   -7.3277   23.9359 C   0  0  0  0  0 15  0  0  0  0  0  0
M  END
$$$$
