
     RDKit          3D

 13 14  0  0  0  0  0  0  0  0999 V2000
   65.9157   -4.5715  -69.4127 O   0  0  0  0  0  0  0  0  0  0  0  0
   65.9700   -6.7113  -66.7274 C   0  0  0  0  0  0  0  0  0  0  0  0
   66.3371   -6.7967  -69.6559 C   0  0  0  0  0  0  0  0  0  0  0  0
   64.1932   -4.1232  -68.3281 O   0  0  0  0  0  0  0  0  0  0  0  0
   65.0144   -5.8167  -66.6695 C   0  0  0  0  0  0  0  0  0  0  0  0
   66.4491   -6.3055  -64.2777 O   0  0  0  0  0  0  0  0  0  0  0  0
   65.8394   -5.7068  -68.3254 C   0  0  0  0  0  0  0  0  0  0  0  0
   66.2295   -4.6770  -67.3647 C   0  0  0  0  0  0  0  0  0  0  0  0
   65.2231   -4.9100  -67.3509 C   0  0  0  0  0  0  0  0  0  0  0  0
   66.9159   -6.2647  -69.1538 O   0  0  0  0  0  0  0  0  0  0  0  0
   64.9908   -5.2713  -67.1651 C   0  0  0  0  0  0  0  0  0  0  0  0
   66.8037   -3.5951  -68.5300 C   0  0  0  0  0  0  0  0  0  0  0  0
   67.0982   -7.7445  -66.5106 O   0  0  0  0  0  0  0  0  0  0  0  0
  9 11  1  0
  5 11  1  0
  3 10  1  0
  8  9  1  0
  5  9  1  0
  2  5  1  0
  8 11  1  0
  7  9  1  0
  7  8  1  0
  7 10  1  0
  7 11  1  0
  2 13  1  0
  1 12  1  0
  8 12  1  0
M  END
$$$$
