
     RDKit          3D

 31 43  0  0  0  0  0  0  0  0999 V2000
   24.7496   36.7230  104.6900 C   0  0  0  0  0  0  0  0  0  0  0  0
   25.4031   32.6397  105.4941 C   0  0  0  0  0  0  0  0  0  0  0  0
   23.8929   33.7385  105.3659 C   0  0  0  0  0  0  0  0  0  0  0  0
   23.2783   32.8999  104.5399 C   0  0  0  0  0  0  0  0  0  0  0  0
   24.4591   34.7568  103.7351 C   0  0  0  0  0  0  0  0  0  0  0  0
   26.4045   33.8493  105.5336 O   0  0  0  0  0  0  0  0  0  0  0  0
   25.3532   34.5271  106.3419 N   0  0  0  0  0  0  0  0  0  0  0  0
   24.0363   34.3024  106.3341 C   0  0  0  0  0  0  0  0  0  0  0  0
   24.2336   33.3963  107.2404 O   0  0  0  0  0  0  0  0  0  0  0  0
   23.8510   34.7380  103.6605 N   0  0  0  0  0  0  0  0  0  0  0  0
   22.7451   32.9776  105.6845 C   0  0  0  0  0  0  0  0  0  0  0  0
   25.9846   35.2135  105.2881 C   0  0  0  0  0  0  0  0  0  0  0  0
   22.9709   35.1864  106.5520 C   0  0  0  0  0  0  0  0  0  0  0  0
   23.8859   35.5039  104.9301 N   0  0  0  0  0  0  0  0  0  0  0  0
   24.6262   34.4183  105.1633 O   0  0  0  0  0  0  0  0  0  0  0  0
   23.9523   33.4826  104.9283 O   0  0  0  0  0  0  0  0  0  0  0  0
   24.2128   34.0286  103.9624 O   0  0  0  0  0  0  0  0  0  0  0  0
   24.9479   34.7280  104.6615 C   0  0  0  0  0  0  0  0  0  0  0  0
   25.5677   33.2129  104.5096 N   0  0  0  0  0  0  0  0  0  0  0  0
   23.9070   35.0072  104.3142 C   0  0  0  0  0  0  0  0  0  0  0  0
   25.7824   33.7456  105.0806 O   0  0  0  0  0  0  0  0  0  0  0  0
   24.1331   35.6709  103.7835 C   0  0  0  0  0  0  0  0  0  0  0  0
   25.0994   33.2718  104.4595 C   0  0  0  0  0  0  0  0  0  0  0  0
   25.0575   34.6593  105.0981 N   0  0  0  0  0  0  0  0  0  0  0  0
   24.9148   36.8465  104.8988 C   0  0  0  0  0  0  0  0  0  0  0  0
   26.1276   33.4022  105.7912 C   0  0  0  0  0  0  0  0  0  0  0  0
   24.0880   35.3193  104.2734 N   0  0  0  0  0  0  0  0  0  0  0  0
   23.8310   33.8359  104.3153 C   0  0  0  0  0  0  0  0  0  0  0  0
   24.0917   34.1420  104.9977 C   0  0  0  0  0  0  0  0  0  0  0  0
   24.9960   35.0667  103.6505 N   0  0  0  0  0  0  0  0  0  0  0  0
   24.2818   34.8368  103.4402 N   0  0  0  0  0  0  0  0  0  0  0  0
  1 25  1  0
  5 31  1  0
 20 27  1  0
 18 24  1  0
 19 23  1  0
 10 31  1  0
 15 24  1  0
  3 16  1  0
 17 28  1  0
  3 29  1  0
  6 26  1  0
 22 27  1  0
  5 10  1  0
 15 29  1  0
  5 30  1  0
 16 29  1  0
 10 20  1  0
 14 27  1  0
  6 21  1  0
 30 31  1  0
 14 20  1  0
 28 29  1  0
  5 17  1  0
 19 21  1  0
 20 22  1  0
  3 28  1  0
 22 30  1  0
  2 26  1  0
 12 24  1  0
  4 28  1  0
  3  8  1  0
  2 19  1  0
 14 22  1  0
  2 23  1  0
  4 11  1  0
  8  9  1  0
 12 18  1  0
  7  8  1  0
  8 13  1  0
  7 12  1  0
  7 26  1  0
 18 23  1  0
 23 26  1  0
M  END
$$$$
