
     RDKit          3D

 31 37  0  0  0  0  0  0  0  0999 V2000
   12.6521   15.3286   15.3443 C   0  0  0  0  0  0  0  0  0  0  0  0
   12.7618   18.6036   15.9750 O   0  0  0  0  0  0  0  0  0  0  0  0
   11.2169   16.2654   16.0215 C   0  0  0  0  0  0  0  0  0  0  0  0
   11.9019   16.6675   14.2043 O   0  0  0  0  0  0  0  0  0  0  0  0
   12.6577   16.1857   13.6751 C   0  0  0  0  0  0  0  0  0  0  0  0
   11.6957   14.6724   15.0560 O   0  0  0  0  0  0  0  0  0  0  0  0
   11.1871   15.9878   15.4193 C   0  0  0  0  0  0  0  0  0  0  0  0
   11.3808   17.2129   14.4668 N   0  0  0  0  0  0  0  0  0  0  0  0
   14.7540   17.4306   15.6539 C   0  0  0  0  0  0  0  0  0  0  0  0
   12.1934   16.8967   14.5576 N   0  0  0  0  0  0  0  0  0  0  0  0
   10.7579   16.7226   15.5797 C   0  0  0  0  0  0  0  0  0  0  0  0
   10.4236   17.1226   15.5159 C   0  0  0  0  0  0  0  0  0  0  0  0
   11.1898   17.3214   14.4321 N   0  0  0  0  0  0  0  0  0  0  0  0
   12.2325   16.2076   14.9558 N   0  0  0  0  0  0  0  0  0  0  0  0
   12.9174   15.8247   14.1075 C   0  0  0  0  0  0  0  0  0  0  0  0
   12.8793   14.0615   15.8515 N   0  0  0  0  0  0  0  0  0  0  0  0
   10.5612   16.9220   14.4454 C   0  0  0  0  0  0  0  0  0  0  0  0
   11.7903   16.3805   16.7913 C   0  0  0  0  0  0  0  0  0  0  0  0
   11.1061   15.8409   15.6923 O   0  0  0  0  0  0  0  0  0  0  0  0
   12.6161   17.0679   14.8377 P   0  0  0  0  0  0  0  0  0  0  0  0
   10.6711   17.2146   13.4372 O   0  0  0  0  0  0  0  0  0  0  0  0
   11.9806   14.8348   15.2607 O   0  0  0  0  0  0  0  0  0  0  0  0
   11.2694   15.6414   13.6735 O   0  0  0  0  0  0  0  0  0  0  0  0
    9.9396   14.6964   14.8379 P   0  0  0  0  0  0  0  0  0  0  0  0
   11.0842   16.7273   14.4719 O   0  0  0  0  0  0  0  0  0  0  0  0
   13.1329   17.0241   14.9811 O   0  0  0  0  0  0  0  0  0  0  0  0
   10.9872   16.2356   14.0798 O   0  0  0  0  0  0  0  0  0  0  0  0
   10.9935   17.4969   12.2826 P   0  0  0  0  0  0  0  0  0  0  0  0
   10.7290   17.1225   13.1599 O   0  0  0  0  0  0  0  0  0  0  0  0
   11.3683   17.1343   14.0947 O   0  0  0  0  0  0  0  0  0  0  0  0
   11.1668   17.4932   13.6195 O   0  0  0  0  0  0  0  0  0  0  0  0
  8 13  1  0
 21 29  1  0
  7 19  1  0
  8 30  1  0
  6 22  1  0
 13 30  1  0
  4 10  1  0
 11 12  1  0
 10 20  1  0
 20 26  1  0
  3 19  1  0
 17 25  1  0
  8 25  1  0
 21 31  1  0
  5 15  1  0
  3  7  1  0
 29 31  1  0
 13 17  1  0
 23 27  1  0
  3 11  1  0
 10 14  1  0
  1 22  1  0
  7 11  1  0
 17 27  1  0
  4 14  1  0
 14 20  1  0
  3 18  1  0
 12 17  1  0
  1  6  1  0
  1 15  1  0
  7 12  1  0
  1 16  1  0
  5 20  1  0
 15 20  1  0
  5 23  1  0
 15 26  1  0
 11 18  1  0
M  END
$$$$
