
     RDKit          3D

 10  0  0  0  0  0  0  0  0  0999 V2000
  -23.8821  -33.8506   38.9385 O   0  0  0  0  0 15  0  0  0  0  0  0
  -23.6561  -31.8492   39.1209 C   0  0  0  0  0 15  0  0  0  0  0  0
  -23.6082  -35.2745   38.7451 O   0  0  0  0  0 15  0  0  0  0  0  0
  -23.5944  -33.9391   38.4836 O   0  0  0  0  0 15  0  0  0  0  0  0
  -23.2304  -33.4283   40.4281 C   0  0  0  0  0 15  0  0  0  0  0  0
  -23.7169  -31.2923   39.9310 C   0  0  0  0  0 15  0  0  0  0  0  0
  -23.5446  -33.9589   38.7748 C   0  0  0  0  0 15  0  0  0  0  0  0
  -22.5647  -32.2410   39.4427 O   0  0  0  0  0 15  0  0  0  0  0  0
  -22.6959  -32.3764   39.5398 C   0  0  0  0  0 15  0  0  0  0  0  0
  -23.3890  -35.3579   40.4162 O   0  0  0  0  0 15  0  0  0  0  0  0
M  END
$$$$
