
     RDKit          3D

 42 67  0  0  0  0  0  0  0  0999 V2000
   35.2840   42.1969   18.9217 C   0  0  0  0  0  0  0  0  0  0  0  0
   33.8099   42.5505   18.7329 C   0  0  0  0  0  0  0  0  0  0  0  0
   35.1682   44.8672   18.4459 C   0  0  0  0  0  0  0  0  0  0  0  0
   34.4434   43.6917   18.4831 C   0  0  0  0  0  0  0  0  0  0  0  0
   34.2658   43.1361   16.7442 C   0  0  0  0  0  0  0  0  0  0  0  0
   34.4703   44.2617   18.6993 C   0  0  0  0  0  0  0  0  0  0  0  0
   33.6586   44.2601   18.6844 C   0  0  0  0  0  0  0  0  0  0  0  0
   33.2431   43.9019   16.8904 C   0  0  0  0  0  0  0  0  0  0  0  0
   31.2186   43.5529   19.7042 N   0  0  0  0  0  0  0  0  0  0  0  0
   34.5268   43.5823   19.0352 C   0  0  0  0  0  0  0  0  0  0  0  0
   35.1360   44.0787   19.2070 N   0  0  0  0  0  0  0  0  0  0  0  0
   33.1621   42.1330   16.1621 C   0  0  0  0  0  0  0  0  0  0  0  0
   35.1834   44.6734   19.6407 C   0  0  0  0  0  0  0  0  0  0  0  0
   34.9660   45.1261   15.3518 C   0  0  0  0  0  0  0  0  0  0  0  0
   33.4625   43.1527   18.8952 C   0  0  0  0  0  0  0  0  0  0  0  0
   34.3104   42.8994   19.5414 C   0  0  0  0  0  0  0  0  0  0  0  0
   35.4802   42.2137   17.6401 C   0  0  0  0  0  0  0  0  0  0  0  0
   34.5231   42.5350   17.8842 N   0  0  0  0  0  0  0  0  0  0  0  0
   32.8641   44.3979   17.5321 N   0  0  0  0  0  0  0  0  0  0  0  0
   34.2397   43.7163   18.4184 C   0  0  0  0  0  0  0  0  0  0  0  0
   34.5987   44.7002   18.7260 C   0  0  0  0  0  0  0  0  0  0  0  0
   33.3168   42.7377   18.6522 C   0  0  0  0  0  0  0  0  0  0  0  0
   36.8709   45.2096   18.6316 C   0  0  0  0  0  0  0  0  0  0  0  0
   35.5133   44.5390   18.3679 C   0  0  0  0  0  0  0  0  0  0  0  0
   35.0275   44.8143   17.9790 C   0  0  0  0  0  0  0  0  0  0  0  0
   33.5666   43.7000   18.2132 C   0  0  0  0  0  0  0  0  0  0  0  0
   35.5198   43.4339   18.8885 C   0  0  0  0  0  0  0  0  0  0  0  0
   35.5462   44.1891   15.9829 C   0  0  0  0  0  0  0  0  0  0  0  0
   33.8838   42.8783   16.6404 C   0  0  0  0  0  0  0  0  0  0  0  0
   33.9861   42.4484   19.1213 C   0  0  0  0  0  0  0  0  0  0  0  0
   33.6259   42.1896   18.1892 C   0  0  0  0  0  0  0  0  0  0  0  0
   34.4927   45.4308   16.3584 N   0  0  0  0  0  0  0  0  0  0  0  0
   34.2319   43.8643   17.3166 C   0  0  0  0  0  0  0  0  0  0  0  0
   34.0780   44.7104   18.0661 C   0  0  0  0  0  0  0  0  0  0  0  0
   34.4359   44.5942   17.5315 C   0  0  0  0  0  0  0  0  0  0  0  0
   34.1137   42.7095   18.7330 C   0  0  0  0  0  0  0  0  0  0  0  0
   34.2886   43.6121   18.2484 C   0  0  0  0  0  0  0  0  0  0  0  0
   35.2597   43.7604   18.5672 N   0  0  0  0  0  0  0  0  0  0  0  0
   35.6848   43.0877   15.9175 C   0  0  0  0  0  0  0  0  0  0  0  0
   33.4914   44.4860   17.1220 N   0  0  0  0  0  0  0  0  0  0  0  0
   35.5714   43.2505   20.5572 C   0  0  0  0  0  0  0  0  0  0  0  0
   36.3066   44.0810   17.9827 O   0  0  0  0  0  0  0  0  0  0  0  0
 20 37  1  0
  4 20  1  0
  4 37  1  0
  2 36  1  0
  2 30  1  0
  6 21  1  0
  5 29  1  0
  3 24  1  0
 30 36  1  0
  3 25  1  0
 15 22  1  0
 27 38  1  0
  2 22  1  0
  4 10  1  0
  4  6  1  0
 34 35  1  0
  6 20  1  0
  3 21  1  0
  8 40  1  0
  2 31  1  0
 24 25  1  0
 10 20  1  0
 16 30  1  0
 11 38  1  0
 26 37  1  0
 11 13  1  0
  7 26  1  0
 19 40  1  0
  6 10  1  0
 25 35  1  0
 22 31  1  0
 33 35  1  0
 22 36  1  0
 15 36  1  0
 10 11  1  0
 21 34  1  0
 24 38  1  0
 21 25  1  0
  7 34  1  0
 15 26  1  0
  8 19  1  0
 15 30  1  0
  5 33  1  0
 33 37  1  0
 33 40  1  0
 24 42  1  0
 18 31  1  0
 17 18  1  0
 28 39  1  0
 26 34  1  0
 12 29  1  0
 14 32  1  0
  3 35  1  0
  8 29  1  0
  1 27  1  0
 14 28  1  0
  5  8  1  0
  1 17  1  0
  5 18  1  0
  1 16  1  0
 27 42  1  0
  7 19  1  0
 16 27  1  0
 16 41  1  0
 28 32  1  0
 29 31  1  0
 13 41  1  0
M  END
$$$$
