
     RDKit          3D

 18 21  0  0  0  0  0  0  0  0999 V2000
    1.7659  105.8652   23.0327 N   0  0  0  0  0  0  0  0  0  0  0  0
    1.5762  107.0430   24.3262 O   0  0  0  0  0  0  0  0  0  0  0  0
    1.3208  108.5071   23.1017 N   0  0  0  0  0  0  0  0  0  0  0  0
    2.0844  107.5198   22.7287 C   0  0  0  0  0  0  0  0  0  0  0  0
   -0.6114  108.2251   23.3282 C   0  0  0  0  0  0  0  0  0  0  0  0
    3.0323  108.5297   24.1312 C   0  0  0  0  0  0  0  0  0  0  0  0
    2.1486  109.2024   22.8411 O   0  0  0  0  0  0  0  0  0  0  0  0
    3.4049  107.9455   21.7222 O   0  0  0  0  0  0  0  0  0  0  0  0
    3.1088  107.5243   21.7173 C   0  0  0  0  0  0  0  0  0  0  0  0
    4.3543  107.9488   23.3994 C   0  0  0  0  0  0  0  0  0  0  0  0
    1.9079  107.8950   25.2571 C   0  0  0  0  0  0  0  0  0  0  0  0
    2.8346  108.2003   22.6153 N   0  0  0  0  0  0  0  0  0  0  0  0
    2.8078  107.9962   25.0084 C   0  0  0  0  0  0  0  0  0  0  0  0
    1.7293  106.7297   23.7100 C   0  0  0  0  0  0  0  0  0  0  0  0
    2.1455  108.0289   24.4665 C   0  0  0  0  0  0  0  0  0  0  0  0
    1.9953  108.3288   22.4391 C   0  0  0  0  0  0  0  0  0  0  0  0
    2.3870  109.6178   21.9598 C   0  0  0  0  0  0  0  0  0  0  0  0
    3.5664  106.7854   21.8209 C   0  0  0  0  0  0  0  0  0  0  0  0
  8  9  1  0
  2 14  1  0
 11 15  1  0
 13 15  1  0
  4 16  1  0
 12 16  1  0
  9 18  1  0
 11 13  1  0
  3 16  1  0
  7 16  1  0
  7 17  1  0
  4 12  1  0
  6 13  1  0
  6 15  1  0
  8 12  1  0
  1 14  1  0
  2 15  1  0
  3  4  1  0
  4 14  1  0
  6 10  1  0
  6 11  1  0
M  END
$$$$
