
     RDKit          3D

  9  0  0  0  0  0  0  0  0  0999 V2000
   -6.3134   30.4610   -3.9274 O   0  0  0  0  0 15  0  0  0  0  0  0
   -6.9609   29.4887   -2.5206 O   0  0  0  0  0 15  0  0  0  0  0  0
   -8.1722   31.0182   -3.9587 O   0  0  0  0  0 15  0  0  0  0  0  0
   -8.7468   30.6438   -1.6668 O   0  0  0  0  0 15  0  0  0  0  0  0
   -7.7784   29.9287   -3.0284 C   0  0  0  0  0 15  0  0  0  0  0  0
   -7.9275   30.5875   -2.5064 O   0  0  0  0  0 15  0  0  0  0  0  0
   -7.7832   30.5004   -5.1635 O   0  0  0  0  0 15  0  0  0  0  0  0
   -7.5221   29.9494   -2.5478 O   0  0  0  0  0 15  0  0  0  0  0  0
   -7.8464   30.6723   -1.5571 O   0  0  0  0  0 15  0  0  0  0  0  0
M  END
$$$$
