
     RDKit          3D

  5  0  0  0  0  0  0  0  0  0999 V2000
   10.1161   -0.6301  -22.3191 C   0  0  0  0  0 15  0  0  0  0  0  0
   11.1676   -0.4741  -22.9261 O   0  0  0  0  0 15  0  0  0  0  0  0
   12.2286   -1.9130  -23.6426 O   0  0  0  0  0 15  0  0  0  0  0  0
   11.4709   -1.1698  -21.8923 O   0  0  0  0  0 15  0  0  0  0  0  0
   10.4598   -2.1930  -22.3323 C   0  0  0  0  0 15  0  0  0  0  0  0
M  END
$$$$
