
     RDKit          3D

 11 14  0  0  0  0  0  0  0  0999 V2000
  132.6128   53.4214   32.6262 N   0  0  0  0  0  0  0  0  0  0  0  0
  134.7769   54.3513   33.1895 C   0  0  0  0  0  0  0  0  0  0  0  0
  134.2155   52.7482   31.9370 C   0  0  0  0  0  0  0  0  0  0  0  0
  133.6849   55.4788   32.8388 O   0  0  0  0  0  0  0  0  0  0  0  0
  134.6645   53.2820   32.9295 O   0  0  0  0  0  0  0  0  0  0  0  0
  133.4114   52.4204   33.2538 C   0  0  0  0  0  0  0  0  0  0  0  0
  134.1227   51.3902   33.9790 C   0  0  0  0  0  0  0  0  0  0  0  0
  134.0458   53.6080   32.1776 C   0  0  0  0  0  0  0  0  0  0  0  0
  134.3551   52.6529   33.5370 C   0  0  0  0  0  0  0  0  0  0  0  0
  132.1182   52.4016   33.7534 N   0  0  0  0  0  0  0  0  0  0  0  0
  134.7656   52.2938   31.9977 C   0  0  0  0  0  0  0  0  0  0  0  0
  3 11  1  0
  3  8  1  0
  5  9  1  0
  6  9  1  0
  5  8  1  0
  7  9  1  0
  6 10  1  0
  1  6  1  0
  6  7  1  0
  2  8  1  0
  8 11  1  0
  1 10  1  0
  2  4  1  0
  3  9  1  0
M  END
$$$$
