
     RDKit          3D

 16  0  0  0  0  0  0  0  0  0999 V2000
   -7.9764  -52.4557  -19.0833 O   0  0  0  0  0 15  0  0  0  0  0  0
   -7.3129  -51.8956  -19.2879 C   0  0  0  0  0 15  0  0  0  0  0  0
   -7.0362  -52.3519  -19.1836 O   0  0  0  0  0 15  0  0  0  0  0  0
   -5.4367  -51.8237  -20.3241 O   0  0  0  0  0 15  0  0  0  0  0  0
   -7.5399  -52.7905  -18.6086 C   0  0  0  0  0 15  0  0  0  0  0  0
   -7.0513  -52.2984  -19.7478 C   0  0  0  0  0 15  0  0  0  0  0  0
   -6.2155  -52.8001  -16.7454 C   0  0  0  0  0 15  0  0  0  0  0  0
   -6.6214  -53.0356  -17.6613 C   0  0  0  0  0 15  0  0  0  0  0  0
   -5.9467  -52.9155  -17.6275 O   0  0  0  0  0 15  0  0  0  0  0  0
   -5.8047  -53.3377  -19.1336 O   0  0  0  0  0 15  0  0  0  0  0  0
   -6.0609  -52.0843  -18.9109 C   0  0  0  0  0 15  0  0  0  0  0  0
   -6.5253  -53.7019  -16.7628 C   0  0  0  0  0 15  0  0  0  0  0  0
   -6.5962  -52.1600  -19.3357 O   0  0  0  0  0 15  0  0  0  0  0  0
   -6.0531  -52.1835  -19.2045 C   0  0  0  0  0 15  0  0  0  0  0  0
   -7.4886  -52.4230  -18.4408 C   0  0  0  0  0 15  0  0  0  0  0  0
   -5.2750  -51.4198  -18.3849 C   0  0  0  0  0 15  0  0  0  0  0  0
M  END
$$$$
