
     RDKit          3D

 10 13  0  0  0  0  0  0  0  0999 V2000
  -22.4282   24.8663   -4.7565 C   0  0  0  0  0  0  0  0  0  0  0  0
  -22.6813   26.3266   -4.4775 C   0  0  0  0  0  0  0  0  0  0  0  0
  -23.0280   26.1543   -4.0013 C   0  0  0  0  0  0  0  0  0  0  0  0
  -21.1864   25.7359   -4.8010 N   0  0  0  0  0  0  0  0  0  0  0  0
  -22.0894   25.3128   -3.2622 C   0  0  0  0  0  0  0  0  0  0  0  0
  -22.7254   25.2203   -3.3780 C   0  0  0  0  0  0  0  0  0  0  0  0
  -23.3806   24.1176   -3.3438 N   0  0  0  0  0  0  0  0  0  0  0  0
  -20.6992   25.9753   -4.7252 C   0  0  0  0  0  0  0  0  0  0  0  0
  -24.4062   25.6475   -5.7923 C   0  0  0  0  0  0  0  0  0  0  0  0
  -24.3875   25.4960   -3.3859 N   0  0  0  0  0  0  0  0  0  0  0  0
  4  8  1  0
  2  3  1  0
  5  6  1  0
  3  6  1  0
  6  7  1  0
  1  6  1  0
  3  5  1  0
  1  2  1  0
  1  4  1  0
  1  5  1  0
  3 10  1  0
  2  4  1  0
  2  5  1  0
M  END
$$$$
