
     RDKit          3D

 11  7  0  0  0  0  0  0  0  0999 V2000
  133.3652   51.9786   34.3480 N   0  0  0  0  0  0  0  0  0  0  0  0
  133.0782   52.3200   30.5281 C   0  0  0  0  0  0  0  0  0  0  0  0
  132.1747   53.0275   32.8640 C   0  0  0  0  0  0  0  0  0  0  0  0
  134.0593   52.3028   32.4425 O   0  0  0  0  0  0  0  0  0  0  0  0
  132.4478   54.3013   31.8293 O   0  0  0  0  0  0  0  0  0  0  0  0
  133.4799   51.1258   30.1989 C   0  0  0  0  0  0  0  0  0  0  0  0
  134.9425   54.2529   32.6715 C   0  0  0  0  0  0  0  0  0  0  0  0
  134.1747   54.2944   30.8966 C   0  0  0  0  0  0  0  0  0  0  0  0
  134.1885   52.0829   31.7835 C   0  0  0  0  0  0  0  0  0  0  0  0
  134.1324   52.7174   31.0760 N   0  0  0  0  0  0  0  0  0  0  0  0
  134.3801   53.7593   30.9043 C   0  0  0  0  0  0  0  0  0  0  0  0
  8 11  1  0
  4  9  1  0
  9 10  1  0
 10 11  1  0
  2 10  1  0
  2  6  1  0
  2  9  1  0
M  END
$$$$
