
     RDKit          3D

 20 28  0  0  0  0  0  0  0  0999 V2000
   13.6379   34.0266   14.9869 O   0  0  0  0  0  0  0  0  0  0  0  0
   12.6442   33.9895   13.9932 S   0  0  0  0  0  0  0  0  0  0  0  0
   12.7834   32.7546   15.4384 O   0  0  0  0  0  0  0  0  0  0  0  0
   13.7709   35.4662   15.5178 C   0  0  0  0  0  0  0  0  0  0  0  0
   14.5787   35.4623   14.3857 C   0  0  0  0  0  0  0  0  0  0  0  0
   12.0343   32.9622   13.0965 C   0  0  0  0  0  0  0  0  0  0  0  0
   12.9014   35.6054   14.5413 C   0  0  0  0  0  0  0  0  0  0  0  0
   13.4126   34.7448   15.5638 C   0  0  0  0  0  0  0  0  0  0  0  0
   13.3880   34.3132   12.9132 C   0  0  0  0  0  0  0  0  0  0  0  0
   14.4196   34.2464   14.6514 C   0  0  0  0  0  0  0  0  0  0  0  0
   15.8651   35.6691   15.2762 C   0  0  0  0  0  0  0  0  0  0  0  0
   15.3227   33.1135   14.6927 N   0  0  0  0  0  0  0  0  0  0  0  0
   14.5301   32.9351   15.0645 C   0  0  0  0  0  0  0  0  0  0  0  0
   14.2057   33.8392   14.7025 N   0  0  0  0  0  0  0  0  0  0  0  0
   13.1534   30.2347   14.9366 C   0  0  0  0  0  0  0  0  0  0  0  0
   14.8317   34.1321   14.7565 C   0  0  0  0  0  0  0  0  0  0  0  0
   14.5570   35.1908   13.9748 N   0  0  0  0  0  0  0  0  0  0  0  0
   11.7040   34.6527   14.5751 C   0  0  0  0  0  0  0  0  0  0  0  0
   14.1803   32.5573   14.2579 C   0  0  0  0  0  0  0  0  0  0  0  0
   13.7754   33.0654   13.8860 C   0  0  0  0  0  0  0  0  0  0  0  0
 10 16  1  0
 10 14  1  0
  5 17  1  0
  1 14  1  0
 14 16  1  0
 19 20  1  0
  4  8  1  0
  1 10  1  0
 12 13  1  0
 13 19  1  0
 12 16  1  0
 10 17  1  0
 13 16  1  0
  2 18  1  0
  4  7  1  0
 12 19  1  0
  2  9  1  0
  4  5  1  0
 13 20  1  0
  7  8  1  0
  2 20  1  0
  2  6  1  0
  7 18  1  0
  5 11  1  0
  9 20  1  0
  5  7  1  0
  2  8  1  0
  2  3  1  0
M  END
$$$$
