
     RDKit          3D

 10  0  0  0  0  0  0  0  0  0999 V2000
   32.5802   26.3709    3.2897 O   0  0  0  0  0 15  0  0  0  0  0  0
   31.3400   24.5998    4.4810 O   0  0  0  0  0 15  0  0  0  0  0  0
   29.6520   24.1252    4.5139 O   0  0  0  0  0 15  0  0  0  0  0  0
   31.4205   25.6268    3.8135 O   0  0  0  0  0 15  0  0  0  0  0  0
   30.3282   27.5585    4.2387 C   0  0  0  0  0 15  0  0  0  0  0  0
   31.5505   25.7727    1.9045 C   0  0  0  0  0 15  0  0  0  0  0  0
   31.9872   25.2004    3.3654 C   0  0  0  0  0 15  0  0  0  0  0  0
   31.3837   27.6289    3.8194 O   0  0  0  0  0 15  0  0  0  0  0  0
   30.3208   24.5132    2.9837 C   0  0  0  0  0 15  0  0  0  0  0  0
   30.9587   26.4764    3.2374 C   0  0  0  0  0 15  0  0  0  0  0  0
M  END
$$$$
