
     RDKit          3D

  6  0  0  0  0  0  0  0  0  0999 V2000
   22.1562   22.0506   20.2358 O   0  0  0  0  0 15  0  0  0  0  0  0
   23.4342   23.0895   19.9661 O   0  0  0  0  0 15  0  0  0  0  0  0
   23.6017   22.1565   19.8026 O   0  0  0  0  0 15  0  0  0  0  0  0
   21.4949   22.6791   19.4206 O   0  0  0  0  0 15  0  0  0  0  0  0
   23.0597   21.5481   20.3747 O   0  0  0  0  0 15  0  0  0  0  0  0
   22.4478   22.5967   19.7172 C   0  0  0  0  0 15  0  0  0  0  0  0
M  END
$$$$
