
     RDKit          3D

 31 47  0  0  0  0  0  0  0  0999 V2000
   36.9531   50.8923   44.9069 C   0  0  0  0  0  0  0  0  0  0  0  0
   37.4125   51.5284   43.6731 C   0  0  0  0  0  0  0  0  0  0  0  0
   36.0512   51.1893   41.6571 C   0  0  0  0  0  0  0  0  0  0  0  0
   34.1019   50.6783   42.9875 C   0  0  0  0  0  0  0  0  0  0  0  0
   36.7337   51.7281   41.5874 C   0  0  0  0  0  0  0  0  0  0  0  0
   36.3658   52.1711   42.2069 C   0  0  0  0  0  0  0  0  0  0  0  0
   36.9418   51.6668   42.2672 C   0  0  0  0  0  0  0  0  0  0  0  0
   37.7130   51.0189   44.5398 C   0  0  0  0  0  0  0  0  0  0  0  0
   36.6631   51.6842   42.8046 C   0  0  0  0  0  0  0  0  0  0  0  0
   35.1653   51.1650   44.0519 C   0  0  0  0  0  0  0  0  0  0  0  0
   35.3122   50.6661   43.5222 C   0  0  0  0  0  0  0  0  0  0  0  0
   34.8897   52.7384   43.9003 C   0  0  0  0  0  0  0  0  0  0  0  0
   36.6891   51.4007   42.2001 C   0  0  0  0  0  0  0  0  0  0  0  0
   36.5120   50.6140   42.6011 C   0  0  0  0  0  0  0  0  0  0  0  0
   36.4293   49.8034   42.5002 C   0  0  0  0  0  0  0  0  0  0  0  0
   35.4379   50.4580   41.1749 C   0  0  0  0  0  0  0  0  0  0  0  0
   36.4543   51.0763   43.4939 N   0  0  0  0  0  0  0  0  0  0  0  0
   35.9355   52.2602   41.8608 C   0  0  0  0  0  0  0  0  0  0  0  0
   34.7086   51.9605   42.8581 C   0  0  0  0  0  0  0  0  0  0  0  0
   36.8291   51.4219   40.6125 N   0  0  0  0  0  0  0  0  0  0  0  0
   38.5957   51.5205   43.3241 C   0  0  0  0  0  0  0  0  0  0  0  0
   35.9860   50.9323   41.8810 C   0  0  0  0  0  0  0  0  0  0  0  0
   36.0833   50.3077   43.1237 O   0  0  0  0  0  0  0  0  0  0  0  0
   35.2359   52.4841   42.9394 O   0  0  0  0  0  0  0  0  0  0  0  0
   34.4912   51.8338   43.0278 C   0  0  0  0  0  0  0  0  0  0  0  0
   35.1924   51.0398   42.9239 C   0  0  0  0  0  0  0  0  0  0  0  0
   36.5476   50.9530   42.6674 C   0  0  0  0  0  0  0  0  0  0  0  0
   34.4942   49.2988   42.8222 C   0  0  0  0  0  0  0  0  0  0  0  0
   37.0810   51.5574   42.7416 C   0  0  0  0  0  0  0  0  0  0  0  0
   35.4186   52.3452   42.8407 C   0  0  0  0  0  0  0  0  0  0  0  0
   36.9953   52.1095   44.0996 Cl  0  0  0  0  0  0  0  0  0  0  0  0
 24 30  1  0
 19 25  1  0
  3 22  1  0
 14 27  1  0
  7 13  1  0
  9 29  1  0
  7 29  1  0
  6 18  1  0
  7  9  1  0
 13 27  1  0
  9 13  1  0
 13 29  1  0
  5  7  1  0
 11 26  1  0
 14 23  1  0
 10 11  1  0
 19 24  1  0
  9 27  1  0
 19 30  1  0
 27 29  1  0
 14 15  1  0
  2 31  1  0
  5  6  1  0
  1  8  1  0
  3  5  1  0
 15 23  1  0
 14 22  1  0
  5 18  1  0
 16 22  1  0
 19 26  1  0
  2  8  1  0
 25 26  1  0
  3 16  1  0
  2 17  1  0
 25 30  1  0
  3 18  1  0
 18 30  1  0
 10 26  1  0
 11 17  1  0
  4 25  1  0
  2 21  1  0
  4 11  1  0
  6 22  1  0
 10 17  1  0
  4 28  1  0
  4 10  1  0
  8 21  1  0
M  END
$$$$
