
     RDKit          3D

  7  0  0  0  0  0  0  0  0  0999 V2000
    7.9842  -11.0360  -15.3566 O   0  0  0  0  0 15  0  0  0  0  0  0
    5.8447  -12.9348  -15.0385 O   0  0  0  0  0 15  0  0  0  0  0  0
    5.7918  -12.1493  -16.4372 C   0  0  0  0  0 15  0  0  0  0  0  0
    6.7937  -12.4089  -14.7607 C   0  0  0  0  0 15  0  0  0  0  0  0
    8.6231   -9.7739  -15.7660 C   0  0  0  0  0 15  0  0  0  0  0  0
    6.6325  -10.5787  -16.5302 C   0  0  0  0  0 15  0  0  0  0  0  0
    7.0935  -11.0785  -15.5625 C   0  0  0  0  0 15  0  0  0  0  0  0
M  END
$$$$
