
     RDKit          3D

 28 45  0  0  0  0  0  0  0  0999 V2000
   24.0079   10.4358  -12.3955 C   0  0  0  0  0  0  0  0  0  0  0  0
   22.3550   11.2025  -12.9097 C   0  0  0  0  0  0  0  0  0  0  0  0
   22.2364    8.3438  -13.1871 C   0  0  0  0  0  0  0  0  0  0  0  0
   22.0981    8.3098  -13.2533 O   0  0  0  0  0  0  0  0  0  0  0  0
   21.0185   11.6205  -12.4925 C   0  0  0  0  0  0  0  0  0  0  0  0
   21.7298    8.8865  -12.1866 C   0  0  0  0  0  0  0  0  0  0  0  0
   21.3214   11.1467  -14.3839 C   0  0  0  0  0  0  0  0  0  0  0  0
   22.1824   10.4888  -12.8080 C   0  0  0  0  0  0  0  0  0  0  0  0
   22.3034    6.9587  -12.4740 O   0  0  0  0  0  0  0  0  0  0  0  0
   23.2875   11.3752  -11.1653 C   0  0  0  0  0  0  0  0  0  0  0  0
   23.4414   10.1350  -12.6592 C   0  0  0  0  0  0  0  0  0  0  0  0
   23.9230    9.2782  -12.7839 C   0  0  0  0  0  0  0  0  0  0  0  0
   21.3477    8.9208  -11.9180 C   0  0  0  0  0  0  0  0  0  0  0  0
   22.9442    9.7334  -13.0613 C   0  0  0  0  0  0  0  0  0  0  0  0
   24.0458    7.8357  -11.1695 C   0  0  0  0  0  0  0  0  0  0  0  0
   24.4774   10.7105  -14.2143 C   0  0  0  0  0  0  0  0  0  0  0  0
   23.5486   11.3067  -13.7096 C   0  0  0  0  0  0  0  0  0  0  0  0
   22.5883    8.4961  -12.1494 C   0  0  0  0  0  0  0  0  0  0  0  0
   21.4545   10.0869  -11.8669 C   0  0  0  0  0  0  0  0  0  0  0  0
   21.3257    8.1334  -12.5665 C   0  0  0  0  0  0  0  0  0  0  0  0
   23.7766    9.6133  -13.9756 C   0  0  0  0  0  0  0  0  0  0  0  0
   21.2426    9.6264  -13.8937 C   0  0  0  0  0  0  0  0  0  0  0  0
   23.4030    8.8526  -13.2133 C   0  0  0  0  0  0  0  0  0  0  0  0
   21.1258    8.8002  -12.9298 C   0  0  0  0  0  0  0  0  0  0  0  0
   23.1938    9.4652  -13.6678 C   0  0  0  0  0  0  0  0  0  0  0  0
   20.9313    9.6062  -12.8074 C   0  0  0  0  0  0  0  0  0  0  0  0
   21.6572   11.7769  -12.0139 O   0  0  0  0  0  0  0  0  0  0  0  0
   21.2345    9.0324  -13.3111 N   0  0  0  0  0  0  0  0  0  0  0  0
  3  4  1  0
 24 28  1  0
  6 13  1  0
 21 25  1  0
  1 11  1  0
 14 25  1  0
  2  8  1  0
 11 14  1  0
 20 24  1  0
 23 25  1  0
 12 23  1  0
  5 27  1  0
 26 28  1  0
 22 28  1  0
 24 26  1  0
  6 20  1  0
  6 18  1  0
  6 24  1  0
 11 12  1  0
 14 23  1  0
 13 20  1  0
  4 20  1  0
  8 14  1  0
  3 18  1  0
 22 26  1  0
 21 23  1  0
 12 25  1  0
 13 19  1  0
 19 26  1  0
 16 17  1  0
  1 12  1  0
  8 19  1  0
  2 27  1  0
  8 11  1  0
 16 21  1  0
 13 18  1  0
  2 17  1  0
  2  5  1  0
  3  9  1  0
  9 18  1  0
  7 22  1  0
  1 17  1  0
  1 10  1  0
  5 19  1  0
 17 21  1  0
M  END
$$$$
