
     RDKit          3D

 45 57  0  0  0  0  0  0  0  0999 V2000
    2.0489    1.8351   43.9994 O   0  0  0  0  0  0  0  0  0  0  0  0
    2.6969   -0.0882   42.5607 C   0  0  0  0  0  0  0  0  0  0  0  0
    3.7148    1.2398   42.1684 C   0  0  0  0  0  0  0  0  0  0  0  0
    3.5029    0.9963   43.3211 O   0  0  0  0  0  0  0  0  0  0  0  0
    3.8461    3.5677   43.6105 C   0  0  0  0  0  0  0  0  0  0  0  0
    2.8898   -0.1052   43.7438 O   0  0  0  0  0  0  0  0  0  0  0  0
    3.2175    1.2551   44.1318 O   0  0  0  0  0  0  0  0  0  0  0  0
    3.6708    1.2061   42.8454 C   0  0  0  0  0  0  0  0  0  0  0  0
    3.0081    1.7209   42.8265 C   0  0  0  0  0  0  0  0  0  0  0  0
    2.2767    0.7471   42.0131 C   0  0  0  0  0  0  0  0  0  0  0  0
    3.6828    1.0790   44.4271 O   0  0  0  0  0  0  0  0  0  0  0  0
    2.5343    0.8218   42.7446 O   0  0  0  0  0  0  0  0  0  0  0  0
    3.2088    0.5754   42.1310 O   0  0  0  0  0  0  0  0  0  0  0  0
    2.1723   -0.6012   42.7596 C   0  0  0  0  0  0  0  0  0  0  0  0
    3.2476    0.7806   42.3296 C   0  0  0  0  0  0  0  0  0  0  0  0
    5.8067    2.6549   42.0346 O   0  0  0  0  0  0  0  0  0  0  0  0
    3.5397   -0.7264   42.9049 C   0  0  0  0  0  0  0  0  0  0  0  0
    2.9739    1.0574   42.3504 O   0  0  0  0  0  0  0  0  0  0  0  0
    2.2670   -1.2856   43.2746 O   0  0  0  0  0  0  0  0  0  0  0  0
    3.3100    0.9837   43.0757 C   0  0  0  0  0  0  0  0  0  0  0  0
    2.5600    1.0086   41.5688 C   0  0  0  0  0  0  0  0  0  0  0  0
    2.4745    1.7609   41.3907 C   0  0  0  0  0  0  0  0  0  0  0  0
    0.5716    1.2608   42.6319 O   0  0  0  0  0  0  0  0  0  0  0  0
    3.8936    1.2187   43.3321 C   0  0  0  0  0  0  0  0  0  0  0  0
    2.0523    0.0919   43.1260 C   0  0  0  0  0  0  0  0  0  0  0  0
    4.2808    0.6482   42.0731 O   0  0  0  0  0  0  0  0  0  0  0  0
    4.9303   -0.4544   44.7569 C   0  0  0  0  0  0  0  0  0  0  0  0
    2.6586    1.2065   42.7095 O   0  0  0  0  0  0  0  0  0  0  0  0
    4.3075    0.7430   43.5581 O   0  0  0  0  0  0  0  0  0  0  0  0
    0.8016    1.4283   42.6020 C   0  0  0  0  0  0  0  0  0  0  0  0
    1.4763    0.2989   45.4374 C   0  0  0  0  0  0  0  0  0  0  0  0
    3.2137    0.3409   42.5440 C   0  0  0  0  0  0  0  0  0  0  0  0
    3.4941    0.3208   41.3507 O   0  0  0  0  0  0  0  0  0  0  0  0
    2.7045    1.2783   44.5981 O   0  0  0  0  0  0  0  0  0  0  0  0
    3.2672    0.5264   41.9425 C   0  0  0  0  0  0  0  0  0  0  0  0
    1.3312    1.7395   44.1518 C   0  0  0  0  0  0  0  0  0  0  0  0
    2.0970    0.4863   43.1095 O   0  0  0  0  0  0  0  0  0  0  0  0
    4.7607    0.0951   43.7722 C   0  0  0  0  0  0  0  0  0  0  0  0
    4.2504    1.1738   42.6266 O   0  0  0  0  0  0  0  0  0  0  0  0
    4.0480    3.2082   43.0227 C   0  0  0  0  0  0  0  0  0  0  0  0
    4.3280    0.3216   42.9097 O   0  0  0  0  0  0  0  0  0  0  0  0
    4.2343    0.7398   43.4326 O   0  0  0  0  0  0  0  0  0  0  0  0
    4.7798    1.3662   42.8747 C   0  0  0  0  0  0  0  0  0  0  0  0
    2.5297    1.3947   41.9624 C   0  0  0  0  0  0  0  0  0  0  0  0
    2.4097    0.8392   42.0697 O   0  0  0  0  0  0  0  0  0  0  0  0
 29 42  1  0
 10 45  1  0
 13 35  1  0
 23 30  1  0
 13 15  1  0
  4 20  1  0
 15 18  1  0
 25 37  1  0
 12 28  1  0
  4 24  1  0
 15 35  1  0
  8 20  1  0
 15 32  1  0
 18 28  1  0
  8 24  1  0
 21 45  1  0
 21 44  1  0
  7 11  1  0
 10 21  1  0
 24 42  1  0
 39 43  1  0
  8 39  1  0
 32 35  1  0
 12 37  1  0
 33 35  1  0
 24 29  1  0
  2 32  1  0
  3  8  1  0
 22 44  1  0
  7 34  1  0
 10 44  1  0
  5 40  1  0
  1 36  1  0
  2 14  1  0
 21 22  1  0
 14 25  1  0
  3 26  1  0
  9 20  1  0
 20 32  1  0
 14 19  1  0
  2 25  1  0
 26 41  1  0
 38 41  1  0
 11 34  1  0
  9 44  1  0
  6 25  1  0
  3  9  1  0
  2 10  1  0
 27 38  1  0
  6 17  1  0
  3 33  1  0
 14 17  1  0
 17 19  1  0
  1  9  1  0
 38 43  1  0
 30 36  1  0
 17 38  1  0
M  END
$$$$
