
     RDKit          3D

  9  8  0  0  0  0  0  0  0  0999 V2000
   90.7519   68.3289   -4.9948 C   0  0  0  0  0  0  0  0  0  0  0  0
   92.3668   71.9646   -3.4382 N   0  0  0  0  0  0  0  0  0  0  0  0
   91.8650   68.0957   -3.8654 C   0  0  0  0  0  0  0  0  0  0  0  0
   92.1255   70.8992   -3.3083 O   0  0  0  0  0  0  0  0  0  0  0  0
   92.9123   70.8376   -4.8760 N   0  0  0  0  0  0  0  0  0  0  0  0
   93.0260   69.0562   -3.8782 C   0  0  0  0  0  0  0  0  0  0  0  0
   91.4017   70.6061   -3.7672 N   0  0  0  0  0  0  0  0  0  0  0  0
   90.2634   69.7463   -6.2220 N   0  0  0  0  0  0  0  0  0  0  0  0
   91.6155   68.9761   -3.7747 C   0  0  0  0  0  0  0  0  0  0  0  0
  4  7  1  0
  3  9  1  0
  2  4  1  0
  6  9  1  0
  3  6  1  0
  1  3  1  0
  1  9  1  0
  7  9  1  0
M  END
$$$$
