
     RDKit          3D

 29 46  0  0  0  0  0  0  0  0999 V2000
   31.2426   23.9246    4.1154 C   0  0  0  0  0  0  0  0  0  0  0  0
   29.5698   25.0854    2.7877 C   0  0  0  0  0  0  0  0  0  0  0  0
   32.6609   25.3606    3.6250 C   0  0  0  0  0  0  0  0  0  0  0  0
   31.4509   23.8362    4.6906 O   0  0  0  0  0  0  0  0  0  0  0  0
   29.7578   23.6928    4.6028 C   0  0  0  0  0  0  0  0  0  0  0  0
   31.5189   25.0193    3.9644 C   0  0  0  0  0  0  0  0  0  0  0  0
   30.4286   26.8036    4.4362 C   0  0  0  0  0  0  0  0  0  0  0  0
   31.6483   25.2145    2.0542 C   0  0  0  0  0  0  0  0  0  0  0  0
   30.4650   25.9965    1.5916 O   0  0  0  0  0  0  0  0  0  0  0  0
   32.1177   24.9337    3.3692 C   0  0  0  0  0  0  0  0  0  0  0  0
   31.7365   24.2428    2.8301 C   0  0  0  0  0  0  0  0  0  0  0  0
   30.3725   24.6977    4.3187 C   0  0  0  0  0  0  0  0  0  0  0  0
   31.8334   24.5407    3.9077 C   0  0  0  0  0  0  0  0  0  0  0  0
   30.7547   26.3075    3.0878 C   0  0  0  0  0  0  0  0  0  0  0  0
   31.1729   25.6247    2.3960 O   0  0  0  0  0  0  0  0  0  0  0  0
   32.1346   25.1401    3.3762 C   0  0  0  0  0  0  0  0  0  0  0  0
   32.0061   24.6560    3.4221 C   0  0  0  0  0  0  0  0  0  0  0  0
   33.3590   24.6970    3.5458 C   0  0  0  0  0  0  0  0  0  0  0  0
   30.4393   24.0043    3.3570 C   0  0  0  0  0  0  0  0  0  0  0  0
   32.1087   24.8880    3.3862 C   0  0  0  0  0  0  0  0  0  0  0  0
   32.2211   24.8454    3.6739 C   0  0  0  0  0  0  0  0  0  0  0  0
   31.0030   25.7927    4.7216 C   0  0  0  0  0  0  0  0  0  0  0  0
   31.0429   24.3191    5.1937 C   0  0  0  0  0  0  0  0  0  0  0  0
   31.4903   26.8807    4.0117 C   0  0  0  0  0  0  0  0  0  0  0  0
   30.4181   23.9208    3.1232 C   0  0  0  0  0  0  0  0  0  0  0  0
   30.8142   24.2818    4.5263 C   0  0  0  0  0  0  0  0  0  0  0  0
   30.5029   25.4502    3.4836 O   0  0  0  0  0  0  0  0  0  0  0  0
   31.0318   25.9263    3.3485 C   0  0  0  0  0  0  0  0  0  0  0  0
   31.5950   25.5262    4.6703 O   0  0  0  0  0  0  0  0  0  0  0  0
 10 16  1  0
 19 25  1  0
 16 20  1  0
 17 20  1  0
 10 17  1  0
 20 21  1  0
 10 21  1  0
 17 21  1  0
 16 21  1  0
 16 17  1  0
 14 28  1  0
  6 13  1  0
  1  4  1  0
 12 26  1  0
 22 29  1  0
 13 20  1  0
  1 26  1  0
 23 26  1  0
  8 15  1  0
 27 28  1  0
 10 13  1  0
  4 26  1  0
  6 29  1  0
  1 13  1  0
  3 18  1  0
 14 27  1  0
 15 28  1  0
  1 19  1  0
  7 24  1  0
 12 23  1  0
 12 19  1  0
  7 22  1  0
  6 22  1  0
  6 28  1  0
  5 12  1  0
  8 11  1  0
 14 24  1  0
 22 24  1  0
 11 25  1  0
 11 19  1  0
  7 14  1  0
  2 25  1  0
  8  9  1  0
  5 23  1  0
  5 25  1  0
  3 11  1  0
M  END
$$$$
