
     RDKit          3D

 13  0  0  0  0  0  0  0  0  0999 V2000
    4.5573  -11.3245    9.8435 C   0  0  0  0  0 15  0  0  0  0  0  0
    5.8012  -10.7474   10.1881 O   0  0  0  0  0 15  0  0  0  0  0  0
    3.9662  -11.0778    8.7118 O   0  0  0  0  0 15  0  0  0  0  0  0
    4.3456  -11.0292    8.5629 C   0  0  0  0  0 15  0  0  0  0  0  0
    5.6796  -10.6626    8.4894 C   0  0  0  0  0 15  0  0  0  0  0  0
    4.4804  -12.2661    9.0591 O   0  0  0  0  0 15  0  0  0  0  0  0
    4.0791   -9.8133    9.5258 O   0  0  0  0  0 15  0  0  0  0  0  0
    1.8689  -10.2262    9.7962 O   0  0  0  0  0 15  0  0  0  0  0  0
    5.1530  -11.9686    7.5340 C   0  0  0  0  0 15  0  0  0  0  0  0
    2.7492  -11.1655    9.8526 O   0  0  0  0  0 15  0  0  0  0  0  0
    4.2749  -11.6969   10.8764 C   0  0  0  0  0 15  0  0  0  0  0  0
    4.0222   -9.7804   10.5330 O   0  0  0  0  0 15  0  0  0  0  0  0
    2.8469  -11.7597   10.0503 C   0  0  0  0  0 15  0  0  0  0  0  0
M  END
$$$$
