
     RDKit          3D

 26 35  0  0  0  0  0  0  0  0999 V2000
   30.3980   52.4925   80.9591 N   0  0  0  0  0  0  0  0  0  0  0  0
   30.4689   50.4172   82.7922 C   0  0  0  0  0  0  0  0  0  0  0  0
   30.1493   50.9538   82.5838 S   0  0  0  0  0  0  0  0  0  0  0  0
   30.2752   50.2300   84.2114 C   0  0  0  0  0  0  0  0  0  0  0  0
   31.3729   51.8914   81.7921 C   0  0  0  0  0  0  0  0  0  0  0  0
   31.3861   50.8762   82.9908 C   0  0  0  0  0  0  0  0  0  0  0  0
   32.1834   50.3086   82.8049 C   0  0  0  0  0  0  0  0  0  0  0  0
   30.9965   50.5723   82.9812 N   0  0  0  0  0  0  0  0  0  0  0  0
   31.8706   52.0828   81.6605 C   0  0  0  0  0  0  0  0  0  0  0  0
   29.8205   49.4721   82.6744 C   0  0  0  0  0  0  0  0  0  0  0  0
   32.7377   52.7576   80.9163 N   0  0  0  0  0  0  0  0  0  0  0  0
   30.7216   52.3272   83.6501 C   0  0  0  0  0  0  0  0  0  0  0  0
   31.5022   49.4371   79.8921 N   0  0  0  0  0  0  0  0  0  0  0  0
   30.9199   50.4224   82.6522 C   0  0  0  0  0  0  0  0  0  0  0  0
   31.1998   50.0817   82.4539 C   0  0  0  0  0  0  0  0  0  0  0  0
   31.0092   50.5190   82.6912 C   0  0  0  0  0  0  0  0  0  0  0  0
   30.7429   51.2420   82.8737 C   0  0  0  0  0  0  0  0  0  0  0  0
   32.1401   51.0119   82.3156 O   0  0  0  0  0  0  0  0  0  0  0  0
   31.2223   51.6667   80.7510 P   0  0  0  0  0  0  0  0  0  0  0  0
   32.3392   49.6421   82.5214 O   0  0  0  0  0  0  0  0  0  0  0  0
   29.5915   49.8957   80.7889 O   0  0  0  0  0  0  0  0  0  0  0  0
   33.3938   50.0106   80.2757 O   0  0  0  0  0  0  0  0  0  0  0  0
   30.5950   48.6097   82.8906 P   0  0  0  0  0  0  0  0  0  0  0  0
   32.2527   51.3263   81.8773 O   0  0  0  0  0  0  0  0  0  0  0  0
   31.0824   50.6322   80.4886 O   0  0  0  0  0  0  0  0  0  0  0  0
   33.7171   49.8258   81.9849 O   0  0  0  0  0  0  0  0  0  0  0  0
 14 16  1  0
  8 16  1  0
  8 14  1  0
  2 14  1  0
 14 15  1  0
  6  8  1  0
 15 16  1  0
  5  9  1  0
 18 24  1  0
  2 16  1  0
  2  3  1  0
  3 17  1  0
  7 20  1  0
  6 17  1  0
  7 18  1  0
  2 15  1  0
  9 24  1  0
  6 15  1  0
  6  7  1  0
  5 19  1  0
 19 25  1  0
 10 23  1  0
  1 19  1  0
  9 19  1  0
  9 11  1  0
 12 17  1  0
 13 25  1  0
  5 17  1  0
  1  5  1  0
 20 26  1  0
  3 10  1  0
  3  4  1  0
  3 12  1  0
 11 19  1  0
  3 23  1  0
M  END
$$$$
