
     RDKit          3D

 29 39  0  0  0  0  0  0  0  0999 V2000
  -18.8716   -9.9964   11.0808 C   0  0  0  0  0  0  0  0  0  0  0  0
  -17.5627  -11.7657   11.8778 O   0  0  0  0  0  0  0  0  0  0  0  0
  -18.5217  -11.4781   11.3703 C   0  0  0  0  0  0  0  0  0  0  0  0
  -18.6965  -10.8338   11.2690 O   0  0  0  0  0  0  0  0  0  0  0  0
  -18.2391  -11.9226    9.5424 C   0  0  0  0  0  0  0  0  0  0  0  0
  -21.0291   -9.3124   11.2425 O   0  0  0  0  0  0  0  0  0  0  0  0
  -18.5739  -10.3190   11.2212 C   0  0  0  0  0  0  0  0  0  0  0  0
  -20.2164   -9.5134   10.6269 N   0  0  0  0  0  0  0  0  0  0  0  0
  -18.2040   -9.4859   13.2638 C   0  0  0  0  0  0  0  0  0  0  0  0
  -19.4129  -12.6191   10.0341 N   0  0  0  0  0  0  0  0  0  0  0  0
  -17.4174  -11.0877   10.6047 C   0  0  0  0  0  0  0  0  0  0  0  0
  -18.4205   -9.8664   11.5564 C   0  0  0  0  0  0  0  0  0  0  0  0
  -17.7001  -11.3134   11.9657 N   0  0  0  0  0  0  0  0  0  0  0  0
  -18.5449   -9.9213   11.4469 C   0  0  0  0  0  0  0  0  0  0  0  0
  -18.5286  -10.8797   11.5062 N   0  0  0  0  0  0  0  0  0  0  0  0
  -18.6525   -9.8799    9.9097 C   0  0  0  0  0  0  0  0  0  0  0  0
  -20.9347  -12.8533   10.9993 N   0  0  0  0  0  0  0  0  0  0  0  0
  -19.9186  -11.7401   11.8671 S   0  0  0  0  0  0  0  0  0  0  0  0
  -18.8476  -11.2155   10.7954 C   0  0  0  0  0  0  0  0  0  0  0  0
  -21.8765   -9.7492   11.7925 C   0  0  0  0  0  0  0  0  0  0  0  0
  -19.6501  -10.8041   11.3469 O   0  0  0  0  0  0  0  0  0  0  0  0
  -19.0910   -9.9119   10.9205 P   0  0  0  0  0  0  0  0  0  0  0  0
  -20.0274  -10.9001   11.1985 O   0  0  0  0  0  0  0  0  0  0  0  0
  -18.6676  -12.7708   11.3884 O   0  0  0  0  0  0  0  0  0  0  0  0
  -19.0765   -9.6760   12.5575 O   0  0  0  0  0  0  0  0  0  0  0  0
  -18.0627   -8.7360   10.1835 O   0  0  0  0  0  0  0  0  0  0  0  0
  -19.5885   -9.7325   12.2950 P   0  0  0  0  0  0  0  0  0  0  0  0
  -19.9650   -9.3252   11.6012 O   0  0  0  0  0  0  0  0  0  0  0  0
  -18.9609  -10.6534   12.8565 O   0  0  0  0  0  0  0  0  0  0  0  0
 12 14  1  0
  1 22  1  0
  4 15  1  0
 21 23  1  0
  7 14  1  0
  1  7  1  0
  2 13  1  0
  1 14  1  0
  4  7  1  0
 25 27  1  0
  7 12  1  0
  3 15  1  0
  1 12  1  0
  3 19  1  0
 14 22  1  0
 15 19  1  0
 27 28  1  0
 12 22  1  0
  8 28  1  0
  3 13  1  0
 25 29  1  0
  6  8  1  0
 19 21  1  0
 18 23  1  0
  6 20  1  0
 16 22  1  0
  2  3  1  0
  8 22  1  0
 27 29  1  0
 16 26  1  0
 11 13  1  0
 11 19  1  0
  5 10  1  0
 10 24  1  0
  5 11  1  0
 18 24  1  0
  9 27  1  0
 17 18  1  0
 18 27  1  0
M  END
$$$$
