
     RDKit          3D

  4  0  0  0  0  0  0  0  0  0999 V2000
    0.3343   13.2402    2.4504 O   0  0  0  0  0 15  0  0  0  0  0  0
    1.9428   14.1931    0.5205 O   0  0  0  0  0 15  0  0  0  0  0  0
    0.4000   14.7626   -0.6138 O   0  0  0  0  0 15  0  0  0  0  0  0
    1.1676   13.5003    0.6694 C   0  0  0  0  0 15  0  0  0  0  0  0
M  END
$$$$
