
     RDKit          3D

  9  0  0  0  0  0  0  0  0  0999 V2000
   -0.2446   16.1078  -27.0140 C   0  0  0  0  0 15  0  0  0  0  0  0
   -1.5700   16.9129  -26.1759 O   0  0  0  0  0 15  0  0  0  0  0  0
   -2.5016   16.6361  -27.1792 O   0  0  0  0  0 15  0  0  0  0  0  0
   -1.7944   15.2191  -26.5288 C   0  0  0  0  0 15  0  0  0  0  0  0
   -2.1524   16.8581  -27.8327 C   0  0  0  0  0 15  0  0  0  0  0  0
   -1.5897   15.8513  -27.3684 C   0  0  0  0  0 15  0  0  0  0  0  0
    0.0024   16.4385  -28.2750 C   0  0  0  0  0 15  0  0  0  0  0  0
   -0.5188   15.3506  -27.4565 C   0  0  0  0  0 15  0  0  0  0  0  0
   -0.4842   15.4370  -26.6165 C   0  0  0  0  0 15  0  0  0  0  0  0
M  END
$$$$
