
     RDKit          3D

  8  0  0  0  0  0  0  0  0  0999 V2000
    3.2494  -10.1611   18.5332 C   0  0  0  0  0 15  0  0  0  0  0  0
    4.3812  -10.3115   17.3244 O   0  0  0  0  0 15  0  0  0  0  0  0
    3.7763  -10.0716   16.8472 C   0  0  0  0  0 15  0  0  0  0  0  0
    4.1131   -9.8594   17.7774 C   0  0  0  0  0 15  0  0  0  0  0  0
    4.1165  -10.4925   18.0406 C   0  0  0  0  0 15  0  0  0  0  0  0
    3.2054   -8.8311   17.8896 O   0  0  0  0  0 15  0  0  0  0  0  0
    4.2093  -10.7625   16.3250 O   0  0  0  0  0 15  0  0  0  0  0  0
    3.3710  -11.6595   16.1140 C   0  0  0  0  0 15  0  0  0  0  0  0
M  END
$$$$
