
     RDKit          3D

  6  0  0  0  0  0  0  0  0  0999 V2000
   64.0683   53.5386  110.3855 C   0  0  0  0  0 15  0  0  0  0  0  0
   62.0083   54.9345  110.0410 O   0  0  0  0  0 15  0  0  0  0  0  0
   63.3589   53.4529  110.5186 C   0  0  0  0  0 15  0  0  0  0  0  0
   62.8874   53.0596  109.7128 O   0  0  0  0  0 15  0  0  0  0  0  0
   65.0119   52.4494  108.8491 O   0  0  0  0  0 15  0  0  0  0  0  0
   64.0871   52.6971  108.6327 O   0  0  0  0  0 15  0  0  0  0  0  0
M  END
$$$$
