
     RDKit          3D

 27 39  0  0  0  0  0  0  0  0999 V2000
   -6.1996   29.8223   -3.7696 C   0  0  0  0  0  0  0  0  0  0  0  0
   -6.7347   31.9402   -4.4204 C   0  0  0  0  0  0  0  0  0  0  0  0
   -7.9723   30.4972   -1.9183 N   0  0  0  0  0  0  0  0  0  0  0  0
   -6.8775   28.8850   -2.3628 C   0  0  0  0  0  0  0  0  0  0  0  0
   -8.0634   30.3689   -3.8291 C   0  0  0  0  0  0  0  0  0  0  0  0
   -8.5909   30.0816   -1.5340 C   0  0  0  0  0  0  0  0  0  0  0  0
   -7.6757   29.6805   -2.9669 C   0  0  0  0  0  0  0  0  0  0  0  0
   -7.8319   30.0091   -2.3679 C   0  0  0  0  0  0  0  0  0  0  0  0
   -6.6056   28.3734   -4.1669 C   0  0  0  0  0  0  0  0  0  0  0  0
   -7.8790   32.3167   -2.2137 N   0  0  0  0  0  0  0  0  0  0  0  0
   -7.6697   29.7996   -4.9926 C   0  0  0  0  0  0  0  0  0  0  0  0
   -7.4094   29.7805   -2.5073 N   0  0  0  0  0  0  0  0  0  0  0  0
   -7.8977   30.3161   -2.5843 N   0  0  0  0  0  0  0  0  0  0  0  0
   -6.9880   31.9396   -4.7882 C   0  0  0  0  0  0  0  0  0  0  0  0
   -7.7717   30.8289   -4.0133 C   0  0  0  0  0  0  0  0  0  0  0  0
   -8.8124   29.9995   -3.2858 C   0  0  0  0  0  0  0  0  0  0  0  0
   -5.2513   30.1183   -3.9654 O   0  0  0  0  0  0  0  0  0  0  0  0
   -5.6057   31.0541   -3.1855 C   0  0  0  0  0  0  0  0  0  0  0  0
   -7.7384   30.1434   -1.4226 C   0  0  0  0  0  0  0  0  0  0  0  0
   -7.0329   30.8480   -4.0327 O   0  0  0  0  0  0  0  0  0  0  0  0
   -6.9673   30.1345   -3.7539 C   0  0  0  0  0  0  0  0  0  0  0  0
   -7.2726   28.3264   -5.1830 C   0  0  0  0  0  0  0  0  0  0  0  0
   -7.7989   28.3109   -3.6365 C   0  0  0  0  0  0  0  0  0  0  0  0
   -7.4866   32.0816   -3.6820 C   0  0  0  0  0  0  0  0  0  0  0  0
   -7.9006   30.8312   -2.0060 C   0  0  0  0  0  0  0  0  0  0  0  0
   -7.4538   30.0895   -1.9971 C   0  0  0  0  0  0  0  0  0  0  0  0
   -6.9980   31.4914   -3.9273 O   0  0  0  0  0  0  0  0  0  0  0  0
  3 25  1  0
  8 13  1  0
  2 14  1  0
  8 12  1  0
  8 26  1  0
  7 12  1  0
  5 15  1  0
 12 26  1  0
 19 26  1  0
  3 19  1  0
 20 27  1  0
  3 26  1  0
  7  8  1  0
  2 27  1  0
 15 20  1  0
  7 13  1  0
 13 25  1  0
  1 21  1  0
  6 19  1  0
 19 25  1  0
  5 16  1  0
  1 17  1  0
  2 24  1  0
 15 21  1  0
  6 25  1  0
  5 21  1  0
  7 21  1  0
  9 22  1  0
 14 24  1  0
 17 18  1  0
  9 23  1  0
 15 24  1  0
  5 11  1  0
  1 18  1  0
 11 22  1  0
 10 24  1  0
  1  9  1  0
 22 23  1  0
  4 23  1  0
M  END
$$$$
