
     RDKit          3D

 33 48  0  0  0  0  0  0  0  0999 V2000
  -42.4073   -7.1329    8.6966 C   0  0  0  0  0  0  0  0  0  0  0  0
  -38.5753   -5.9589    4.8915 C   0  0  0  0  0  0  0  0  0  0  0  0
  -39.2890   -7.1118    9.1883 C   0  0  0  0  0  0  0  0  0  0  0  0
  -39.1295   -6.7001    7.8725 C   0  0  0  0  0  0  0  0  0  0  0  0
  -40.6450   -6.9710    8.4011 C   0  0  0  0  0  0  0  0  0  0  0  0
  -42.7368   -7.2752    7.2262 C   0  0  0  0  0  0  0  0  0  0  0  0
  -40.1552   -7.9266    5.7138 N   0  0  0  0  0  0  0  0  0  0  0  0
  -41.1185   -5.7055    7.4902 C   0  0  0  0  0  0  0  0  0  0  0  0
  -38.3544   -6.4462    7.4363 O   0  0  0  0  0  0  0  0  0  0  0  0
  -41.2199   -7.3091    9.0885 C   0  0  0  0  0  0  0  0  0  0  0  0
  -39.8088   -7.3499    9.1467 C   0  0  0  0  0  0  0  0  0  0  0  0
  -40.3805   -7.6661    7.8030 C   0  0  0  0  0  0  0  0  0  0  0  0
  -39.9124   -7.7046    7.7450 C   0  0  0  0  0  0  0  0  0  0  0  0
  -38.9173   -6.9527    6.1435 C   0  0  0  0  0  0  0  0  0  0  0  0
  -41.6441   -7.0821    9.6577 C   0  0  0  0  0  0  0  0  0  0  0  0
  -40.6821   -7.0922    6.3558 O   0  0  0  0  0  0  0  0  0  0  0  0
  -40.7509   -9.1816    9.4902 C   0  0  0  0  0  0  0  0  0  0  0  0
  -39.6526   -7.5576    6.2877 N   0  0  0  0  0  0  0  0  0  0  0  0
  -40.8045   -8.4304    7.8455 C   0  0  0  0  0  0  0  0  0  0  0  0
  -38.9390   -6.7288    7.6780 O   0  0  0  0  0  0  0  0  0  0  0  0
  -40.3520   -8.0840    8.7714 Cl  0  0  0  0  0  0  0  0  0  0  0  0
  -41.4497   -8.6380    8.3710 C   0  0  0  0  0  0  0  0  0  0  0  0
  -39.3708   -6.0625   10.7205 C   0  0  0  0  0  0  0  0  0  0  0  0
  -41.6444   -6.2115    6.7699 C   0  0  0  0  0  0  0  0  0  0  0  0
  -41.4256   -7.9210    7.9267 C   0  0  0  0  0  0  0  0  0  0  0  0
  -40.6708   -6.9336    6.1664 C   0  0  0  0  0  0  0  0  0  0  0  0
  -41.1680   -6.8441    7.8491 C   0  0  0  0  0  0  0  0  0  0  0  0
  -40.7818   -8.2195    9.8819 C   0  0  0  0  0  0  0  0  0  0  0  0
  -38.7038   -6.6310    8.7974 N   0  0  0  0  0  0  0  0  0  0  0  0
  -39.1655   -9.0005    6.5619 C   0  0  0  0  0  0  0  0  0  0  0  0
  -38.8123   -7.8503    7.2899 N   0  0  0  0  0  0  0  0  0  0  0  0
  -39.8937   -6.6277    7.8327 C   0  0  0  0  0  0  0  0  0  0  0  0
  -40.5187   -8.3905    6.7724 C   0  0  0  0  0  0  0  0  0  0  0  0
 16 26  1  0
  4 20  1  0
 12 13  1  0
  3 11  1  0
  9 20  1  0
 10 15  1  0
  4 32  1  0
  5 27  1  0
 19 25  1  0
 22 25  1  0
  7 18  1  0
  3 29  1  0
 19 22  1  0
 12 19  1  0
  4  9  1  0
  5 12  1  0
  5 10  1  0
 14 18  1  0
 11 21  1  0
  5 32  1  0
  4 29  1  0
  8 24  1  0
 17 28  1  0
 13 32  1  0
 12 25  1  0
 25 27  1  0
 19 33  1  0
 16 18  1  0
  8 27  1  0
 13 31  1  0
  7 26  1  0
  7 33  1  0
  1 15  1  0
  1 10  1  0
 10 28  1  0
 27 32  1  0
 13 33  1  0
 24 26  1  0
 11 29  1  0
 30 31  1  0
 17 22  1  0
 15 28  1  0
 14 31  1  0
 11 28  1  0
 30 33  1  0
  1  6  1  0
  6 24  1  0
  2 14  1  0
M  END
$$$$
