
     RDKit          3D

 22 26  0  0  0  0  0  0  0  0999 V2000
   47.9604  -13.0040   24.0336 C   0  0  0  0  0  0  0  0  0  0  0  0
   47.9052  -10.3246   23.9840 C   0  0  0  0  0  0  0  0  0  0  0  0
   48.8871  -13.1141   25.1463 C   0  0  0  0  0  0  0  0  0  0  0  0
   47.3809  -11.0624   24.1645 C   0  0  0  0  0  0  0  0  0  0  0  0
   47.9004  -11.6168   26.1687 O   0  0  0  0  0  0  0  0  0  0  0  0
   47.6422  -12.3953   23.3522 O   0  0  0  0  0  0  0  0  0  0  0  0
   48.8186  -12.5994   25.2997 O   0  0  0  0  0  0  0  0  0  0  0  0
   48.1641  -10.5419   24.3176 C   0  0  0  0  0  0  0  0  0  0  0  0
   51.6509  -11.1507   25.4077 O   0  0  0  0  0  0  0  0  0  0  0  0
   47.7772   -9.8721   25.2891 P   0  0  0  0  0  0  0  0  0  0  0  0
   45.7391  -11.8884   25.6148 O   0  0  0  0  0  0  0  0  0  0  0  0
   49.7823  -10.2802   26.2589 O   0  0  0  0  0  0  0  0  0  0  0  0
   47.0825  -12.4409   25.8385 O   0  0  0  0  0  0  0  0  0  0  0  0
   49.3529  -12.8993   26.3658 O   0  0  0  0  0  0  0  0  0  0  0  0
   47.3830  -10.0461   25.5417 P   0  0  0  0  0  0  0  0  0  0  0  0
   46.4208   -9.8442   25.9967 O   0  0  0  0  0  0  0  0  0  0  0  0
   49.9948  -13.2971   23.7364 O   0  0  0  0  0  0  0  0  0  0  0  0
   48.3285  -13.4186   25.1849 O   0  0  0  0  0  0  0  0  0  0  0  0
   48.7585  -11.2370   23.9734 P   0  0  0  0  0  0  0  0  0  0  0  0
   48.1690  -11.6228   25.9092 O   0  0  0  0  0  0  0  0  0  0  0  0
   48.2569   -9.8904   24.7535 O   0  0  0  0  0  0  0  0  0  0  0  0
   46.6889  -12.1133   26.1697 O   0  0  0  0  0  0  0  0  0  0  0  0
  5 20  1  0
  2  8  1  0
 10 15  1  0
  3  7  1  0
 13 22  1  0
  3 18  1  0
 10 21  1  0
  8 21  1  0
  2  4  1  0
  4  8  1  0
  7 18  1  0
  1  6  1  0
  8 19  1  0
 15 16  1  0
 11 22  1  0
  5 13  1  0
  2 19  1  0
  3 14  1  0
  2 10  1  0
  4 19  1  0
  1  3  1  0
 10 16  1  0
  4  6  1  0
 15 20  1  0
  1 19  1  0
 10 19  1  0
M  END
$$$$
