
     RDKit          3D

 13 14  0  0  0  0  0  0  0  0999 V2000
   26.3897    4.5324   -5.3070 C   0  0  0  0  0  0  0  0  0  0  0  0
   25.2713    4.8267   -7.6953 C   0  0  0  0  0  0  0  0  0  0  0  0
   25.2632    4.5588   -7.5584 C   0  0  0  0  0  0  0  0  0  0  0  0
   24.6058    4.1449   -6.5737 C   0  0  0  0  0  0  0  0  0  0  0  0
   23.5430    4.8618   -8.3866 C   0  0  0  0  0  0  0  0  0  0  0  0
   25.7327    5.3113   -7.6561 C   0  0  0  0  0  0  0  0  0  0  0  0
   23.6056    3.6188   -6.8603 O   0  0  0  0  0  0  0  0  0  0  0  0
   25.2565    5.2803   -6.3696 O   0  0  0  0  0  0  0  0  0  0  0  0
   24.3388    3.5308   -7.1463 O   0  0  0  0  0  0  0  0  0  0  0  0
   24.1318    5.4929   -5.9016 O   0  0  0  0  0  0  0  0  0  0  0  0
   24.6348    6.0508   -6.1518 N   0  0  0  0  0  0  0  0  0  0  0  0
   25.0472    6.5614   -6.0540 C   0  0  0  0  0  0  0  0  0  0  0  0
   24.8025    4.3849   -5.6628 C   0  0  0  0  0  0  0  0  0  0  0  0
  2  3  1  0
 11 12  1  0
  2  6  1  0
 10 11  1  0
  7  9  1  0
  4  9  1  0
  3  6  1  0
  4 13  1  0
  8 11  1  0
  4  7  1  0
  8 13  1  0
  3  4  1  0
 10 13  1  0
  1 13  1  0
M  END
$$$$
