
     RDKit          3D

  8  0  0  0  0  0  0  0  0  0999 V2000
    9.3256    2.5845   25.6342 C   0  0  0  0  0 15  0  0  0  0  0  0
    9.0135    3.8990   25.5865 O   0  0  0  0  0 15  0  0  0  0  0  0
    8.1168    1.8485   24.3993 O   0  0  0  0  0 15  0  0  0  0  0  0
    9.2227    3.2330   25.7537 C   0  0  0  0  0 15  0  0  0  0  0  0
    9.2425    2.4549   25.8167 O   0  0  0  0  0 15  0  0  0  0  0  0
    7.8283    4.1196   24.7411 O   0  0  0  0  0 15  0  0  0  0  0  0
    9.3333    4.0351   25.1082 O   0  0  0  0  0 15  0  0  0  0  0  0
    9.1954    3.2499   25.2452 C   0  0  0  0  0 15  0  0  0  0  0  0
M  END
$$$$
