
     RDKit          3D

 21 31  0  0  0  0  0  0  0  0999 V2000
   -7.1015   17.3187   24.5932 C   0  0  0  0  0  0  0  0  0  0  0  0
   -5.9321   19.7714   25.0222 C   0  0  0  0  0  0  0  0  0  0  0  0
   -6.8345   19.9445   24.1022 C   0  0  0  0  0  0  0  0  0  0  0  0
   -4.7726   17.9175   22.2606 O   0  0  0  0  0  0  0  0  0  0  0  0
   -5.0463   18.6944   23.2147 C   0  0  0  0  0  0  0  0  0  0  0  0
   -4.5760   19.4788   23.8589 C   0  0  0  0  0  0  0  0  0  0  0  0
   -4.8032   19.7463   23.8714 C   0  0  0  0  0  0  0  0  0  0  0  0
   -6.0558   18.6946   24.2291 C   0  0  0  0  0  0  0  0  0  0  0  0
   -4.6248   19.0749   24.7995 C   0  0  0  0  0  0  0  0  0  0  0  0
   -4.1732   20.3628   24.0388 C   0  0  0  0  0  0  0  0  0  0  0  0
   -4.6436   19.3953   23.9965 C   0  0  0  0  0  0  0  0  0  0  0  0
   -4.7568   19.7509   25.2701 C   0  0  0  0  0  0  0  0  0  0  0  0
   -6.1428   18.8954   22.8392 C   0  0  0  0  0  0  0  0  0  0  0  0
   -4.7323   18.0986   25.1384 C   0  0  0  0  0  0  0  0  0  0  0  0
   -4.7652   18.3173   21.4548 C   0  0  0  0  0  0  0  0  0  0  0  0
   -6.1847   21.3031   24.3039 C   0  0  0  0  0  0  0  0  0  0  0  0
   -6.2600   19.5515   23.7406 C   0  0  0  0  0  0  0  0  0  0  0  0
   -5.1686   19.6251   24.8118 C   0  0  0  0  0  0  0  0  0  0  0  0
   -4.5756   19.5442   23.1066 O   0  0  0  0  0  0  0  0  0  0  0  0
   -6.8898   20.2394   23.8212 C   0  0  0  0  0  0  0  0  0  0  0  0
   -7.0434   16.9587   24.6237 C   0  0  0  0  0  0  0  0  0  0  0  0
  6 11  1  0
  6  7  1  0
  1 21  1  0
  7 11  1  0
  3 20  1  0
 12 18  1  0
  6 19  1  0
  9 18  1  0
  3 17  1  0
  2 18  1  0
  7 19  1  0
  9 12  1  0
  9 11  1  0
  7 10  1  0
  4 15  1  0
 17 20  1  0
  6 10  1  0
 11 18  1  0
  8 17  1  0
  9 14  1  0
 13 17  1  0
  5 13  1  0
  2 12  1  0
  4  5  1  0
  2  3  1  0
  2  8  1  0
 16 20  1  0
  8 13  1  0
  5  8  1  0
 10 12  1  0
  3 16  1  0
M  END
$$$$
