
     RDKit          3D

  5  0  0  0  0  0  0  0  0  0999 V2000
   -3.8467  -16.6572  -13.0616 O   0  0  0  0  0 15  0  0  0  0  0  0
   -3.1596  -17.8403  -10.7627 O   0  0  0  0  0 15  0  0  0  0  0  0
   -4.1241  -16.2996  -11.9550 O   0  0  0  0  0 15  0  0  0  0  0  0
   -4.8330  -17.0654  -11.7434 C   0  0  0  0  0 15  0  0  0  0  0  0
   -2.4632  -17.6138  -12.5557 O   0  0  0  0  0 15  0  0  0  0  0  0
M  END
$$$$
