
     RDKit          3D

 10  0  0  0  0  0  0  0  0  0999 V2000
   -0.1590   33.3896  -12.3098 O   0  0  0  0  0 15  0  0  0  0  0  0
   -1.9773   33.7145  -11.4089 O   0  0  0  0  0 15  0  0  0  0  0  0
   -0.8936   33.8107  -14.9996 O   0  0  0  0  0 15  0  0  0  0  0  0
   -2.2707   34.5398  -13.8285 C   0  0  0  0  0 15  0  0  0  0  0  0
   -1.6631   33.7285  -13.0172 C   0  0  0  0  0 15  0  0  0  0  0  0
   -0.6413   35.4615  -12.3804 O   0  0  0  0  0 15  0  0  0  0  0  0
   -0.7745   33.7469  -12.0240 O   0  0  0  0  0 15  0  0  0  0  0  0
   -0.0558   35.5458  -12.8664 C   0  0  0  0  0 15  0  0  0  0  0  0
   -1.3075   35.7022  -12.8182 C   0  0  0  0  0 15  0  0  0  0  0  0
   -1.9151   34.8452  -14.3197 C   0  0  0  0  0 15  0  0  0  0  0  0
M  END
$$$$
