
     RDKit          3D

 22 32  0  0  0  0  0  0  0  0999 V2000
   22.5362    6.9937   26.9155 C   0  0  0  0  0  0  0  0  0  0  0  0
   24.3801    6.8930   27.6169 C   0  0  0  0  0  0  0  0  0  0  0  0
   24.8878    8.0443   28.2296 N   0  0  0  0  0  0  0  0  0  0  0  0
   24.1169    6.1668   27.1223 C   0  0  0  0  0  0  0  0  0  0  0  0
   24.0760    7.7749   28.5446 C   0  0  0  0  0  0  0  0  0  0  0  0
   24.4308    7.8184   26.5992 O   0  0  0  0  0  0  0  0  0  0  0  0
   24.8688    7.0536   26.9752 C   0  0  0  0  0  0  0  0  0  0  0  0
   23.1959    6.2127   25.1802 C   0  0  0  0  0  0  0  0  0  0  0  0
   24.6522    5.5465   26.7125 C   0  0  0  0  0  0  0  0  0  0  0  0
   23.3442    6.5882   28.5785 C   0  0  0  0  0  0  0  0  0  0  0  0
   25.0830    7.0209   28.6000 C   0  0  0  0  0  0  0  0  0  0  0  0
   25.1116    6.7479   26.5753 C   0  0  0  0  0  0  0  0  0  0  0  0
   24.1351    6.9027   29.1089 C   0  0  0  0  0  0  0  0  0  0  0  0
   23.7417    6.4736   27.5283 O   0  0  0  0  0  0  0  0  0  0  0  0
   24.0224    6.7683   27.6641 C   0  0  0  0  0  0  0  0  0  0  0  0
   23.4603    7.4835   28.5676 C   0  0  0  0  0  0  0  0  0  0  0  0
   23.4847    5.6638   30.1938 C   0  0  0  0  0  0  0  0  0  0  0  0
   23.3521    5.7340   27.4230 N   0  0  0  0  0  0  0  0  0  0  0  0
   24.2700    5.4937   26.6525 S   0  0  0  0  0  0  0  0  0  0  0  0
   24.6296    7.6403   26.9923 O   0  0  0  0  0  0  0  0  0  0  0  0
   24.4623    7.1160   27.4413 O   0  0  0  0  0  0  0  0  0  0  0  0
   21.8182    5.9708   26.9102 O   0  0  0  0  0  0  0  0  0  0  0  0
  2 21  1  0
  2 15  1  0
  9 19  1  0
 14 15  1  0
  6 20  1  0
  7 12  1  0
 15 21  1  0
  4 14  1  0
  7 20  1  0
  5 16  1  0
  4 15  1  0
  2  7  1  0
  4 19  1  0
 10 16  1  0
  3  5  1  0
  4  9  1  0
  6  7  1  0
 10 13  1  0
  5 13  1  0
 13 16  1  0
 11 13  1  0
  3 11  1  0
  2 11  1  0
 18 19  1  0
  1 22  1  0
  5 11  1  0
  9 12  1  0
 10 18  1  0
  9 18  1  0
 12 19  1  0
  3 16  1  0
  8 19  1  0
M  END
$$$$
