
     RDKit          3D

 23 36  0  0  0  0  0  0  0  0999 V2000
   23.7789   18.4886   34.5162 C   0  0  0  0  0  0  0  0  0  0  0  0
   23.1195   18.2598   33.3687 C   0  0  0  0  0  0  0  0  0  0  0  0
   23.0057   19.8440   34.2682 Cl  0  0  0  0  0  0  0  0  0  0  0  0
   23.5928   20.5588   34.0836 C   0  0  0  0  0  0  0  0  0  0  0  0
   25.1251   19.4209   35.3582 C   0  0  0  0  0  0  0  0  0  0  0  0
   24.2372   22.0901   34.8922 C   0  0  0  0  0  0  0  0  0  0  0  0
   23.8624   19.6834   33.7509 C   0  0  0  0  0  0  0  0  0  0  0  0
   22.7918   20.7770   35.6626 C   0  0  0  0  0  0  0  0  0  0  0  0
   23.1408   20.1407   35.9891 C   0  0  0  0  0  0  0  0  0  0  0  0
   24.7165   18.7268   34.2457 C   0  0  0  0  0  0  0  0  0  0  0  0
   25.6900   18.7726   34.3389 O   0  0  0  0  0  0  0  0  0  0  0  0
   23.0792   21.2230   34.8611 C   0  0  0  0  0  0  0  0  0  0  0  0
   24.6733   20.4023   32.5317 C   0  0  0  0  0  0  0  0  0  0  0  0
   23.9762   19.5775   34.1349 C   0  0  0  0  0  0  0  0  0  0  0  0
   23.1054   19.2245   32.8648 C   0  0  0  0  0  0  0  0  0  0  0  0
   24.7262   18.0596   34.9725 C   0  0  0  0  0  0  0  0  0  0  0  0
   25.1392   19.7184   34.7811 C   0  0  0  0  0  0  0  0  0  0  0  0
   23.4385   20.2034   33.3331 C   0  0  0  0  0  0  0  0  0  0  0  0
   23.3061   20.7689   34.2728 C   0  0  0  0  0  0  0  0  0  0  0  0
   24.9028   20.3297   33.8858 C   0  0  0  0  0  0  0  0  0  0  0  0
   24.5039   19.4507   33.1152 C   0  0  0  0  0  0  0  0  0  0  0  0
   23.3929   19.1418   33.7153 C   0  0  0  0  0  0  0  0  0  0  0  0
   25.6271   21.2209   34.1153 C   0  0  0  0  0  0  0  0  0  0  0  0
  4 19  1  0
  7 14  1  0
  5 17  1  0
  7 22  1  0
 12 19  1  0
  7 18  1  0
  8  9  1  0
 14 22  1  0
  4 18  1  0
 15 22  1  0
  7 21  1  0
  3  4  1  0
  8 12  1  0
 10 11  1  0
  2 22  1  0
 10 16  1  0
  1 10  1  0
  4 14  1  0
  2 15  1  0
 18 19  1  0
 17 20  1  0
 13 21  1  0
 10 14  1  0
 15 18  1  0
  1 16  1  0
 20 23  1  0
 11 17  1  0
 20 21  1  0
  1  2  1  0
 13 20  1  0
 15 21  1  0
  6 12  1  0
  5 16  1  0
  8 19  1  0
  9 12  1  0
 17 23  1  0
M  END
$$$$
