
     RDKit          3D

  9  8  0  0  0  0  0  0  0  0999 V2000
  -12.2343   -8.4188   23.5996 N   0  0  0  0  0  0  0  0  0  0  0  0
  -12.9368   -8.1709   25.1191 O   0  0  0  0  0  0  0  0  0  0  0  0
  -13.4459   -8.8167   22.1253 O   0  0  0  0  0  0  0  0  0  0  0  0
  -12.1025   -9.2704   22.2222 C   0  0  0  0  0  0  0  0  0  0  0  0
  -11.4839   -9.1411   21.1257 C   0  0  0  0  0  0  0  0  0  0  0  0
  -11.7801   -7.0478   22.6783 C   0  0  0  0  0  0  0  0  0  0  0  0
  -11.5970   -9.1104   23.3216 C   0  0  0  0  0  0  0  0  0  0  0  0
  -12.3876   -6.8254   23.3720 O   0  0  0  0  0  0  0  0  0  0  0  0
  -12.5465   -8.1066   24.1194 O   0  0  0  0  0  0  0  0  0  0  0  0
  1  9  1  0
  6  8  1  0
  1  7  1  0
  2  9  1  0
  4  7  1  0
  4  5  1  0
  3  4  1  0
  1  4  1  0
M  END
$$$$
