
     RDKit          3D

 26 34  0  0  0  0  0  0  0  0999 V2000
   16.7538   -8.5757    7.1573 C   0  0  0  0  0  0  0  0  0  0  0  0
   17.6226   -9.4493    4.3937 O   0  0  0  0  0  0  0  0  0  0  0  0
   20.2542  -11.2402    4.8455 C   0  0  0  0  0  0  0  0  0  0  0  0
   18.0360  -10.5938    4.7999 C   0  0  0  0  0  0  0  0  0  0  0  0
   17.7882   -9.3192    7.7097 O   0  0  0  0  0  0  0  0  0  0  0  0
   18.7654   -8.9633    5.2752 C   0  0  0  0  0  0  0  0  0  0  0  0
   18.0344   -9.2922    6.0422 C   0  0  0  0  0  0  0  0  0  0  0  0
   16.7861  -10.1319    6.8452 O   0  0  0  0  0  0  0  0  0  0  0  0
   17.7071   -9.6793    6.7366 N   0  0  0  0  0  0  0  0  0  0  0  0
   17.4223   -8.9137    5.1025 C   0  0  0  0  0  0  0  0  0  0  0  0
   18.4715  -10.6387    6.5975 C   0  0  0  0  0  0  0  0  0  0  0  0
   18.4355   -9.5299    7.6129 O   0  0  0  0  0  0  0  0  0  0  0  0
   16.5779   -7.6998    6.6899 C   0  0  0  0  0  0  0  0  0  0  0  0
   19.0400  -10.3465    7.6849 O   0  0  0  0  0  0  0  0  0  0  0  0
   18.1766   -9.2179    8.1421 O   0  0  0  0  0  0  0  0  0  0  0  0
   18.1825   -9.8029    6.9816 C   0  0  0  0  0  0  0  0  0  0  0  0
   16.2817   -9.3478    6.3300 O   0  0  0  0  0  0  0  0  0  0  0  0
   17.2256   -9.0378    7.2605 C   0  0  0  0  0  0  0  0  0  0  0  0
   17.5736  -11.1562    8.2634 O   0  0  0  0  0  0  0  0  0  0  0  0
   17.3851  -10.0678    4.8491 C   0  0  0  0  0  0  0  0  0  0  0  0
   18.0594   -9.2787    7.0738 C   0  0  0  0  0  0  0  0  0  0  0  0
   18.1867  -10.8606    6.0334 C   0  0  0  0  0  0  0  0  0  0  0  0
   18.1457   -8.8544    5.6017 O   0  0  0  0  0  0  0  0  0  0  0  0
   19.3571   -9.8192    6.1664 O   0  0  0  0  0  0  0  0  0  0  0  0
   19.4023   -9.9584    4.8200 C   0  0  0  0  0  0  0  0  0  0  0  0
   18.3945   -9.3411    6.3142 O   0  0  0  0  0  0  0  0  0  0  0  0
  7 26  1  0
 16 21  1  0
  9 16  1  0
  5 15  1  0
  7 23  1  0
  9 21  1  0
 12 15  1  0
  1 18  1  0
 11 22  1  0
  5 12  1  0
  6 23  1  0
  2 20  1  0
 21 26  1  0
  4 20  1  0
  7  9  1  0
 18 21  1  0
  2 10  1  0
 11 16  1  0
  1 13  1  0
  8 17  1  0
  7 16  1  0
 10 20  1  0
  1 17  1  0
  8 18  1  0
 11 14  1  0
  6 25  1  0
  4 22  1  0
 11 24  1  0
 24 25  1  0
  6 10  1  0
  4 25  1  0
  3 25  1  0
 13 18  1  0
 20 22  1  0
M  END
$$$$
