
     RDKit          3D

 37 54  0  0  0  0  0  0  0  0999 V2000
  -17.5417   22.2736   68.2697 C   0  0  0  0  0  0  0  0  0  0  0  0
  -17.6983   21.8901   68.0629 C   0  0  0  0  0  0  0  0  0  0  0  0
  -17.4673   22.4042   68.7400 C   0  0  0  0  0  0  0  0  0  0  0  0
  -16.8123   20.1401   70.0244 C   0  0  0  0  0  0  0  0  0  0  0  0
  -15.7827   21.6804   69.1896 C   0  0  0  0  0  0  0  0  0  0  0  0
  -16.2767   21.2886   69.4867 C   0  0  0  0  0  0  0  0  0  0  0  0
  -16.5920   22.4282   70.2935 C   0  0  0  0  0  0  0  0  0  0  0  0
  -17.6091   20.8023   69.1438 C   0  0  0  0  0  0  0  0  0  0  0  0
  -16.4570   22.0838   70.5331 N   0  0  0  0  0  0  0  0  0  0  0  0
  -17.3540   19.6121   70.2981 C   0  0  0  0  0  0  0  0  0  0  0  0
  -17.5858   22.5424   68.0466 C   0  0  0  0  0  0  0  0  0  0  0  0
  -16.1321   20.1861   69.6769 C   0  0  0  0  0  0  0  0  0  0  0  0
  -17.4975   21.6273   70.0326 C   0  0  0  0  0  0  0  0  0  0  0  0
  -15.7413   20.6552   70.0828 C   0  0  0  0  0  0  0  0  0  0  0  0
  -17.1323   20.7089   68.9520 C   0  0  0  0  0  0  0  0  0  0  0  0
  -16.0378   20.9305   70.0865 C   0  0  0  0  0  0  0  0  0  0  0  0
  -15.5566   21.9185   69.4691 C   0  0  0  0  0  0  0  0  0  0  0  0
  -16.1756   22.3854   70.8815 C   0  0  0  0  0  0  0  0  0  0  0  0
  -15.0539   22.1278   70.7817 C   0  0  0  0  0  0  0  0  0  0  0  0
  -16.4845   22.0063   68.3943 N   0  0  0  0  0  0  0  0  0  0  0  0
  -17.2967   21.0038   71.1208 C   0  0  0  0  0  0  0  0  0  0  0  0
  -15.9567   23.5652   70.5499 O   0  0  0  0  0  0  0  0  0  0  0  0
  -16.1123   20.3902   69.4156 C   0  0  0  0  0  0  0  0  0  0  0  0
  -17.2639   21.2162   68.2237 C   0  0  0  0  0  0  0  0  0  0  0  0
  -16.9039   22.5486   69.4776 O   0  0  0  0  0  0  0  0  0  0  0  0
  -15.0753   21.5599   68.8946 C   0  0  0  0  0  0  0  0  0  0  0  0
  -15.4422   21.5874   69.2858 O   0  0  0  0  0  0  0  0  0  0  0  0
  -17.3183   22.1149   67.2451 C   0  0  0  0  0  0  0  0  0  0  0  0
  -17.6514   21.1504   68.8245 O   0  0  0  0  0  0  0  0  0  0  0  0
  -14.9409   20.3659   70.0010 C   0  0  0  0  0  0  0  0  0  0  0  0
  -16.0145   22.2336   68.3133 O   0  0  0  0  0  0  0  0  0  0  0  0
  -16.2758   21.3128   72.5439 C   0  0  0  0  0  0  0  0  0  0  0  0
  -17.2862   20.9239   68.6692 O   0  0  0  0  0  0  0  0  0  0  0  0
  -15.7596   21.5782   69.8761 O   0  0  0  0  0  0  0  0  0  0  0  0
  -14.3612   21.6601   71.2161 C   0  0  0  0  0  0  0  0  0  0  0  0
  -16.2364   21.2030   69.9303 O   0  0  0  0  0  0  0  0  0  0  0  0
  -18.6151   24.0908   69.0865 C   0  0  0  0  0  0  0  0  0  0  0  0
 12 23  1  0
  1 11  1  0
  5 27  1  0
 16 36  1  0
 15 33  1  0
 17 27  1  0
 14 16  1  0
  5 17  1  0
  7  9  1  0
  6 36  1  0
 29 33  1  0
  1  2  1  0
  8 29  1  0
  1  3  1  0
  8 15  1  0
 20 31  1  0
  9 18  1  0
 17 34  1  0
  2 11  1  0
  5 34  1  0
  5  6  1  0
  3 11  1  0
  7 18  1  0
 12 14  1  0
  6 16  1  0
  4 12  1  0
  4 10  1  0
 14 23  1  0
  2 24  1  0
 17 26  1  0
 12 16  1  0
 14 30  1  0
  2  3  1  0
  7 25  1  0
 15 24  1  0
  6 23  1  0
  3 25  1  0
 19 35  1  0
 11 28  1  0
  4 23  1  0
  1 28  1  0
  8 24  1  0
 20 24  1  0
 18 19  1  0
  8 13  1  0
  7 13  1  0
  9 13  1  0
 18 22  1  0
  4 15  1  0
 13 21  1  0
 26 31  1  0
 20 28  1  0
 10 21  1  0
 26 30  1  0
M  END
$$$$
