
     RDKit          3D

  7  0  0  0  0  0  0  0  0  0999 V2000
   -7.2461   17.7774   24.4768 O   0  0  0  0  0 15  0  0  0  0  0  0
   -4.6672   19.9816   23.7665 O   0  0  0  0  0 15  0  0  0  0  0  0
   -4.9200   20.3185   23.7325 O   0  0  0  0  0 15  0  0  0  0  0  0
   -6.1499   19.1769   24.0908 O   0  0  0  0  0 15  0  0  0  0  0  0
   -4.7008   19.4312   24.7646 O   0  0  0  0  0 15  0  0  0  0  0  0
   -4.3044   20.7755   23.9419 C   0  0  0  0  0 15  0  0  0  0  0  0
   -7.1624   17.4139   24.5087 C   0  0  0  0  0 15  0  0  0  0  0  0
M  END
$$$$
