
     RDKit          3D

 26 40  0  0  0  0  0  0  0  0999 V2000
    8.7132    3.4954   25.0283 C   0  0  0  0  0  0  0  0  0  0  0  0
    9.0990    2.5857   25.1584 C   0  0  0  0  0  0  0  0  0  0  0  0
    8.0248    5.3499   24.6775 C   0  0  0  0  0  0  0  0  0  0  0  0
    6.7644    4.4627   23.4785 C   0  0  0  0  0  0  0  0  0  0  0  0
    8.6101    3.8875   24.5815 C   0  0  0  0  0  0  0  0  0  0  0  0
    7.1629    4.9799   25.6444 C   0  0  0  0  0  0  0  0  0  0  0  0
    7.7639    2.5707   23.6979 C   0  0  0  0  0  0  0  0  0  0  0  0
    8.0982    5.6010   27.1415 C   0  0  0  0  0  0  0  0  0  0  0  0
    8.2737    5.0197   24.3435 N   0  0  0  0  0  0  0  0  0  0  0  0
    8.3379    3.9073   24.6304 C   0  0  0  0  0  0  0  0  0  0  0  0
    9.0112    2.6083   25.9671 N   0  0  0  0  0  0  0  0  0  0  0  0
    8.8178    3.2677   26.4208 C   0  0  0  0  0  0  0  0  0  0  0  0
    7.8797    2.1417   25.1594 C   0  0  0  0  0  0  0  0  0  0  0  0
    8.7561    3.2450   24.7471 C   0  0  0  0  0  0  0  0  0  0  0  0
    7.9159    3.5454   25.4204 C   0  0  0  0  0  0  0  0  0  0  0  0
    7.1666    5.4117   23.6089 C   0  0  0  0  0  0  0  0  0  0  0  0
    7.9237    2.6260   24.8731 C   0  0  0  0  0  0  0  0  0  0  0  0
    8.3649    3.4011   22.9701 C   0  0  0  0  0  0  0  0  0  0  0  0
    8.5856    3.1976   24.7758 C   0  0  0  0  0  0  0  0  0  0  0  0
    8.5365    1.3481   25.1776 C   0  0  0  0  0  0  0  0  0  0  0  0
    9.3423    4.0287   22.1798 N   0  0  0  0  0  0  0  0  0  0  0  0
   10.2189    3.8711   25.9568 N   0  0  0  0  0  0  0  0  0  0  0  0
    9.5600    3.5106   24.9013 C   0  0  0  0  0  0  0  0  0  0  0  0
    8.4059    4.3222   23.1661 C   0  0  0  0  0  0  0  0  0  0  0  0
    8.6827    3.0444   22.0913 C   0  0  0  0  0  0  0  0  0  0  0  0
    8.5397    4.8951   27.2243 C   0  0  0  0  0  0  0  0  0  0  0  0
 14 19  1  0
  5 10  1  0
  1 14  1  0
  1 19  1  0
  3  9  1  0
 13 17  1  0
  1  5  1  0
  5 14  1  0
  1 10  1  0
  5 19  1  0
 10 19  1  0
 10 14  1  0
  2 11  1  0
 11 12  1  0
  8 26  1  0
 18 24  1  0
 18 25  1  0
 13 20  1  0
  4 16  1  0
  2 23  1  0
 15 17  1  0
  7 17  1  0
 21 25  1  0
  2 17  1  0
  7 18  1  0
 22 23  1  0
  2 13  1  0
  3  6  1  0
  3 16  1  0
  9 24  1  0
 12 15  1  0
  9 16  1  0
 21 24  1  0
 18 21  1  0
 13 15  1  0
 11 23  1  0
 12 22  1  0
  6 15  1  0
  4 24  1  0
 12 23  1  0
M  END
$$$$
