
     RDKit          3D

  6  7  0  0  0  0  0  0  0  0999 V2000
  -21.1706   17.4107  -26.4703 O   0  0  0  0  0  0  0  0  0  0  0  0
  -22.1076   17.4069  -26.4239 C   0  0  0  0  0  0  0  0  0  0  0  0
  -22.9737   17.7971  -25.6757 O   0  0  0  0  0  0  0  0  0  0  0  0
  -20.6284   16.4691  -26.2239 C   0  0  0  0  0  0  0  0  0  0  0  0
  -22.7552   17.9276  -25.1295 O   0  0  0  0  0  0  0  0  0  0  0  0
  -22.5959   17.2226  -26.2978 C   0  0  0  0  0  0  0  0  0  0  0  0
  1  2  1  0
  1  4  1  0
  2  4  1  0
  2  6  1  0
  3  5  1  0
  3  6  1  0
  5  6  1  0
M  END
$$$$
