
     RDKit          3D

 11  0  0  0  0  0  0  0  0  0999 V2000
   24.6325   37.3688  104.5079 O   0  0  0  0  0 15  0  0  0  0  0  0
   23.8151   34.1457  105.2893 C   0  0  0  0  0 15  0  0  0  0  0  0
   23.1585   33.4095  104.4375 O   0  0  0  0  0 15  0  0  0  0  0  0
   24.3387   35.3099  103.6094 C   0  0  0  0  0 15  0  0  0  0  0  0
   23.8887   34.5932  106.3067 O   0  0  0  0  0 15  0  0  0  0  0  0
   23.7414   35.3479  103.5191 O   0  0  0  0  0 15  0  0  0  0  0  0
   22.6322   33.6838  105.4989 C   0  0  0  0  0 15  0  0  0  0  0  0
   23.7528   36.0764  104.8019 N   0  0  0  0  0 15  0  0  0  0  0  0
   23.8391   34.1198  104.7921 C   0  0  0  0  0 15  0  0  0  0  0  0
   24.1155   34.3354  103.9291 C   0  0  0  0  0 15  0  0  0  0  0  0
   24.8251   35.3534  104.4973 C   0  0  0  0  0 15  0  0  0  0  0  0
M  END
$$$$
