
     RDKit          3D

  8  5  0  0  0  0  0  0  0  0999 V2000
    6.1733  -12.4119  -11.6214 C   0  0  0  0  0  0  0  0  0  0  0  0
    5.9788  -14.9381  -11.8852 C   0  0  0  0  0  0  0  0  0  0  0  0
    6.5472  -12.9493  -15.1840 O   0  0  0  0  0  0  0  0  0  0  0  0
    6.3834  -14.5949  -13.9327 C   0  0  0  0  0  0  0  0  0  0  0  0
    5.9000  -13.1199  -14.6140 O   0  0  0  0  0  0  0  0  0  0  0  0
    6.9611  -12.2557  -14.8689 C   0  0  0  0  0  0  0  0  0  0  0  0
    7.4839  -14.2935  -14.4027 O   0  0  0  0  0  0  0  0  0  0  0  0
    6.4397  -11.3628  -12.6884 O   0  0  0  0  0  0  0  0  0  0  0  0
  3  6  1  0
  3  5  1  0
  4  7  1  0
  5  6  1  0
  1  8  1  0
M  END
$$$$
