
     RDKit          3D

  4  0  0  0  0  0  0  0  0  0999 V2000
   34.0378  -37.9185    7.7383 O   0  0  0  0  0 15  0  0  0  0  0  0
   33.4178  -37.8547    8.8029 O   0  0  0  0  0 15  0  0  0  0  0  0
   35.0868  -37.7253    7.7722 O   0  0  0  0  0 15  0  0  0  0  0  0
   35.3152  -37.9002    8.1529 C   0  0  0  0  0 15  0  0  0  0  0  0
M  END
$$$$
