
     RDKit          3D

  7  8  0  0  0  0  0  0  0  0999 V2000
  -18.9743   -9.4072   10.9697 O   0  0  0  0  0  0  0  0  0  0  0  0
  -17.6628  -11.1692   11.7317 O   0  0  0  0  0  0  0  0  0  0  0  0
  -18.6290  -10.5608   11.1181 O   0  0  0  0  0  0  0  0  0  0  0  0
  -18.8098  -10.2829   11.1680 C   0  0  0  0  0  0  0  0  0  0  0  0
  -18.3360  -11.1244    9.3039 C   0  0  0  0  0  0  0  0  0  0  0  0
  -18.6565   -9.9030   11.1760 O   0  0  0  0  0  0  0  0  0  0  0  0
  -17.5212  -10.5403   10.5025 C   0  0  0  0  0  0  0  0  0  0  0  0
  1  3  1  0
  1  4  1  0
  2  4  1  0
  2  6  1  0
  3  5  1  0
  4  5  1  0
  4  7  1  0
  6  7  1  0
M  END
$$$$
