
     RDKit          3D

  5  0  0  0  0  0  0  0  0  0999 V2000
   11.6577    1.2687   31.7665 O   0  0  0  0  0 15  0  0  0  0  0  0
   12.6043    1.9373   31.3556 O   0  0  0  0  0 15  0  0  0  0  0  0
   11.8010    0.8790   31.3150 O   0  0  0  0  0 15  0  0  0  0  0  0
   12.4196    0.1351   30.4039 O   0  0  0  0  0 15  0  0  0  0  0  0
   12.6660    0.3976   31.2944 C   0  0  0  0  0 15  0  0  0  0  0  0
M  END
$$$$
