
     RDKit          3D

  5  0  0  0  0  0  0  0  0  0999 V2000
    6.9263   26.2595   26.5255 O   0  0  0  0  0 15  0  0  0  0  0  0
    6.4789   26.8197   27.0968 O   0  0  0  0  0 15  0  0  0  0  0  0
    6.3830   25.8820   25.6974 O   0  0  0  0  0 15  0  0  0  0  0  0
    5.4009   26.7854   25.8030 O   0  0  0  0  0 15  0  0  0  0  0  0
    8.0797   26.5162   26.1829 C   0  0  0  0  0 15  0  0  0  0  0  0
M  END
$$$$
