
     RDKit          3D

  4  0  0  0  0  0  0  0  0  0999 V2000
   47.7926   54.3848   -0.8378 O   0  0  0  0  0 15  0  0  0  0  0  0
   47.0411   56.7406   -1.3607 O   0  0  0  0  0 15  0  0  0  0  0  0
   47.7482   54.6889   -0.5114 O   0  0  0  0  0 15  0  0  0  0  0  0
   47.0661   55.5616   -1.5960 O   0  0  0  0  0 15  0  0  0  0  0  0
M  END
$$$$
