
     RDKit          3D

  6  0  0  0  0  0  0  0  0  0999 V2000
   -0.2624   23.2361  -33.1127 O   0  0  0  0  0 15  0  0  0  0  0  0
   -0.1250   23.0857  -31.9307 C   0  0  0  0  0 15  0  0  0  0  0  0
    0.2977   24.0907  -31.7413 O   0  0  0  0  0 15  0  0  0  0  0  0
    0.8749   22.4465  -32.6160 O   0  0  0  0  0 15  0  0  0  0  0  0
   -0.2056   22.0265  -31.5939 O   0  0  0  0  0 15  0  0  0  0  0  0
   -0.5632   22.7592  -30.9487 C   0  0  0  0  0 15  0  0  0  0  0  0
M  END
$$$$
