
     RDKit          3D

  5  0  0  0  0  0  0  0  0  0999 V2000
   28.5447   13.4498   19.2787 O   0  0  0  0  0 15  0  0  0  0  0  0
   26.6793   14.5173   18.8676 C   0  0  0  0  0 15  0  0  0  0  0  0
   27.0086   14.8693   19.9454 O   0  0  0  0  0 15  0  0  0  0  0  0
   26.8378   14.1946   19.2179 O   0  0  0  0  0 15  0  0  0  0  0  0
   26.2075   15.7242   18.7063 O   0  0  0  0  0 15  0  0  0  0  0  0
M  END
$$$$
