
     RDKit          3D

 33 50  0  0  0  0  0  0  0  0999 V2000
  -22.0346   -6.3797    3.0240 C   0  0  0  0  0  0  0  0  0  0  0  0
  -21.4288   -4.0119    2.7616 C   0  0  0  0  0  0  0  0  0  0  0  0
  -22.0912   -5.7859    1.5481 C   0  0  0  0  0  0  0  0  0  0  0  0
  -20.4749   -5.8090    2.4367 C   0  0  0  0  0  0  0  0  0  0  0  0
  -22.3544   -5.5847    4.5411 C   0  0  0  0  0  0  0  0  0  0  0  0
  -20.0438   -4.5072    2.7070 C   0  0  0  0  0  0  0  0  0  0  0  0
  -22.4134   -4.2211    4.8026 C   0  0  0  0  0  0  0  0  0  0  0  0
  -19.7726   -5.0109    3.4536 C   0  0  0  0  0  0  0  0  0  0  0  0
  -20.0497   -7.1199    4.1626 C   0  0  0  0  0  0  0  0  0  0  0  0
  -20.7801   -5.8310    4.2381 C   0  0  0  0  0  0  0  0  0  0  0  0
  -19.7102   -5.0608    4.0846 C   0  0  0  0  0  0  0  0  0  0  0  0
  -18.7767   -3.7542    1.6222 C   0  0  0  0  0  0  0  0  0  0  0  0
  -21.0210   -6.3690    3.5002 C   0  0  0  0  0  0  0  0  0  0  0  0
  -22.2971   -4.3418    3.6113 C   0  0  0  0  0  0  0  0  0  0  0  0
  -19.0530   -3.9968    4.2227 C   0  0  0  0  0  0  0  0  0  0  0  0
  -23.1541   -5.4699    2.6557 C   0  0  0  0  0  0  0  0  0  0  0  0
  -23.7298   -4.4912    2.5125 N   0  0  0  0  0  0  0  0  0  0  0  0
  -22.0591   -6.3013    3.1792 N   0  0  0  0  0  0  0  0  0  0  0  0
  -21.0537   -6.6889    4.1426 N   0  0  0  0  0  0  0  0  0  0  0  0
  -20.6114   -6.0013    2.7675 N   0  0  0  0  0  0  0  0  0  0  0  0
  -19.2728   -6.5095    2.2945 N   0  0  0  0  0  0  0  0  0  0  0  0
  -23.7528   -5.6755    2.3311 O   0  0  0  0  0  0  0  0  0  0  0  0
  -18.2787   -8.7008    3.9174 O   0  0  0  0  0  0  0  0  0  0  0  0
  -20.4828   -6.0879    4.2002 O   0  0  0  0  0  0  0  0  0  0  0  0
  -20.2218   -3.2405    4.7159 S   0  0  0  0  0  0  0  0  0  0  0  0
  -20.6124   -5.8333    1.8273 C   0  0  0  0  0  0  0  0  0  0  0  0
  -20.4117   -8.4437    3.1885 C   0  0  0  0  0  0  0  0  0  0  0  0
  -21.5595   -5.6462    2.9925 C   0  0  0  0  0  0  0  0  0  0  0  0
  -21.7010   -5.9361    4.4293 C   0  0  0  0  0  0  0  0  0  0  0  0
  -21.6507   -4.1374    5.3487 C   0  0  0  0  0  0  0  0  0  0  0  0
  -19.9776   -5.0097    1.3760 C   0  0  0  0  0  0  0  0  0  0  0  0
  -20.8722   -6.1760    3.0371 C   0  0  0  0  0  0  0  0  0  0  0  0
  -22.1980   -3.8504    3.7642 S   0  0  0  0  0  0  0  0  0  0  0  0
  1 18  1  0
 10 24  1  0
  4 20  1  0
 20 32  1  0
 13 32  1  0
 14 33  1  0
  4 26  1  0
  8 11  1  0
 16 22  1  0
 13 19  1  0
  5 29  1  0
  4 32  1  0
 19 24  1  0
 18 28  1  0
 28 32  1  0
  1 28  1  0
 10 19  1  0
 13 20  1  0
  6  8  1  0
  7 30  1  0
 10 13  1  0
 10 29  1  0
  7 33  1  0
 26 31  1  0
 16 17  1  0
 17 22  1  0
  7 14  1  0
  4 28  1  0
 11 15  1  0
  2 14  1  0
  2 33  1  0
 18 29  1  0
  5  7  1  0
  6 31  1  0
  8 15  1  0
  2  6  1  0
 15 25  1  0
  1 16  1  0
  3 26  1  0
  1 29  1  0
  6 11  1  0
  5 14  1  0
  3 16  1  0
 21 26  1  0
  9 27  1  0
 30 33  1  0
 25 30  1  0
  5 33  1  0
 11 25  1  0
 25 33  1  0
M  END
$$$$
