
     RDKit          3D

  7  0  0  0  0  0  0  0  0  0999 V2000
    9.8325    9.1891   23.0883 C   0  0  0  0  0 15  0  0  0  0  0  0
    7.7866    9.6057   21.8608 O   0  0  0  0  0 15  0  0  0  0  0  0
    8.9705    8.4802   23.5482 O   0  0  0  0  0 15  0  0  0  0  0  0
    8.2972    7.8789   23.6642 C   0  0  0  0  0 15  0  0  0  0  0  0
    7.4221    7.3272   22.1207 C   0  0  0  0  0 15  0  0  0  0  0  0
    8.4444    9.1165   23.8009 C   0  0  0  0  0 15  0  0  0  0  0  0
    9.0082    7.8477   21.9452 C   0  0  0  0  0 15  0  0  0  0  0  0
M  END
$$$$
