
     RDKit          3D

 27 28  0  0  0  0  0  0  0  0999 V2000
    7.0150   25.5940   26.6764 C   0  0  0  0  0  0  0  0  0  0  0  0
    7.9156   26.0662   29.2140 O   0  0  0  0  0  0  0  0  0  0  0  0
    8.3731   25.1793   29.3379 C   0  0  0  0  0  0  0  0  0  0  0  0
    6.5744   26.0069   27.3189 O   0  0  0  0  0  0  0  0  0  0  0  0
    6.8123   22.7474   27.6936 C   0  0  0  0  0  0  0  0  0  0  0  0
    6.4736   25.2546   25.8364 O   0  0  0  0  0  0  0  0  0  0  0  0
    8.0503   25.8500   26.0821 C   0  0  0  0  0  0  0  0  0  0  0  0
    7.3867   22.9159   25.6919 N   0  0  0  0  0  0  0  0  0  0  0  0
    5.5252   26.0851   25.9962 C   0  0  0  0  0  0  0  0  0  0  0  0
    9.4768   25.7391   27.2624 N   0  0  0  0  0  0  0  0  0  0  0  0
    6.8664   24.8900   26.9066 C   0  0  0  0  0  0  0  0  0  0  0  0
    7.9914   24.4996   25.8070 C   0  0  0  0  0  0  0  0  0  0  0  0
    7.6194   26.6229   26.8665 N   0  0  0  0  0  0  0  0  0  0  0  0
    8.1868   26.0232   26.2821 N   0  0  0  0  0  0  0  0  0  0  0  0
    6.7641   25.7322   27.8871 C   0  0  0  0  0  0  0  0  0  0  0  0
    5.9902   22.9895   27.4769 N   0  0  0  0  0  0  0  0  0  0  0  0
    8.6120   24.4953   25.8754 C   0  0  0  0  0  0  0  0  0  0  0  0
    6.1837   26.1951   28.1784 C   0  0  0  0  0  0  0  0  0  0  0  0
    6.4406   26.4988   26.8594 O   0  0  0  0  0  0  0  0  0  0  0  0
    7.5772   24.6662   27.6442 P   0  0  0  0  0  0  0  0  0  0  0  0
    6.5849   25.0968   25.8468 O   0  0  0  0  0  0  0  0  0  0  0  0
    6.4333   25.5577   27.0347 O   0  0  0  0  0  0  0  0  0  0  0  0
    6.2333   25.1548   29.6125 O   0  0  0  0  0  0  0  0  0  0  0  0
    7.6128   27.6753   26.2425 P   0  0  0  0  0  0  0  0  0  0  0  0
    8.1045   23.9340   27.1151 O   0  0  0  0  0  0  0  0  0  0  0  0
    5.4647   25.3941   27.2945 O   0  0  0  0  0  0  0  0  0  0  0  0
    6.6904   25.5947   26.1167 O   0  0  0  0  0  0  0  0  0  0  0  0
  6 21  1  0
  7 14  1  0
  6 27  1  0
  4 22  1  0
 21 27  1  0
 12 17  1  0
  4 15  1  0
  1 22  1  0
  1 11  1  0
 15 18  1  0
  5 16  1  0
  2  3  1  0
 13 14  1  0
 20 25  1  0
 11 20  1  0
  1 19  1  0
  7 13  1  0
 13 19  1  0
  1  7  1  0
 11 15  1  0
 15 20  1  0
  7 12  1  0
 18 26  1  0
 12 25  1  0
  9 26  1  0
 12 14  1  0
  3 20  1  0
 17 20  1  0
M  END
$$$$
