
     RDKit          3D

  4  4  0  0  0  0  0  0  0  0999 V2000
   -7.6980  -61.6079   16.4955 O   0  0  0  0  0  0  0  0  0  0  0  0
   -8.5852  -60.6095   16.3281 O   0  0  0  0  0  0  0  0  0  0  0  0
   -7.5476  -62.3118   16.6018 O   0  0  0  0  0  0  0  0  0  0  0  0
   -7.7139  -61.6202   17.2779 C   0  0  0  0  0  0  0  0  0  0  0  0
  1  3  1  0
  1  4  1  0
  2  3  1  0
  2  4  1  0
M  END
$$$$
