
     RDKit          3D

  8  0  0  0  0  0  0  0  0  0999 V2000
  -21.4193   -0.9252  -28.1760 O   0  0  0  0  0 15  0  0  0  0  0  0
  -22.0962   -1.2998  -30.3632 C   0  0  0  0  0 15  0  0  0  0  0  0
  -21.8235   -2.9358  -29.7827 O   0  0  0  0  0 15  0  0  0  0  0  0
  -22.0087   -1.0437  -29.4653 O   0  0  0  0  0 15  0  0  0  0  0  0
  -21.4785    0.0871  -30.4927 O   0  0  0  0  0 15  0  0  0  0  0  0
  -21.6649   -2.1618  -28.4397 C   0  0  0  0  0 15  0  0  0  0  0  0
  -20.6068   -2.5216  -30.5389 C   0  0  0  0  0 15  0  0  0  0  0  0
  -22.3722   -1.7110  -31.4856 C   0  0  0  0  0 15  0  0  0  0  0  0
M  END
$$$$
