
     RDKit          3D

 31 50  0  0  0  0  0  0  0  0999 V2000
   43.2822   38.5564   84.5219 S   0  0  0  0  0  0  0  0  0  0  0  0
   42.8973   37.9001   83.5747 O   0  0  0  0  0  0  0  0  0  0  0  0
   43.8759   36.5739   82.5591 O   0  0  0  0  0  0  0  0  0  0  0  0
   43.7417   38.3272   85.4827 C   0  0  0  0  0  0  0  0  0  0  0  0
   43.8616   36.6472   83.6925 C   0  0  0  0  0  0  0  0  0  0  0  0
   43.9115   35.7657   83.0729 C   0  0  0  0  0  0  0  0  0  0  0  0
   43.9253   36.8194   85.1516 C   0  0  0  0  0  0  0  0  0  0  0  0
   44.4436   37.2433   82.3374 C   0  0  0  0  0  0  0  0  0  0  0  0
   44.7093   37.1141   85.5773 C   0  0  0  0  0  0  0  0  0  0  0  0
   43.9488   37.4963   84.6500 N   0  0  0  0  0  0  0  0  0  0  0  0
   44.3250   37.2091   85.2244 C   0  0  0  0  0  0  0  0  0  0  0  0
   45.0963   35.7187   83.7285 O   0  0  0  0  0  0  0  0  0  0  0  0
   43.4549   37.5923   84.1725 C   0  0  0  0  0  0  0  0  0  0  0  0
   44.3168   37.0548   83.7276 C   0  0  0  0  0  0  0  0  0  0  0  0
   44.0380   38.2886   83.2961 O   0  0  0  0  0  0  0  0  0  0  0  0
   43.7383   35.5058   84.0213 O   0  0  0  0  0  0  0  0  0  0  0  0
   43.7287   37.3326   83.4998 C   0  0  0  0  0  0  0  0  0  0  0  0
   44.0461   37.8157   82.3152 N   0  0  0  0  0  0  0  0  0  0  0  0
   42.6444   37.1579   86.0139 C   0  0  0  0  0  0  0  0  0  0  0  0
   42.3471   37.9714   83.2671 C   0  0  0  0  0  0  0  0  0  0  0  0
   43.6222   37.8732   83.4743 C   0  0  0  0  0  0  0  0  0  0  0  0
   43.8422   38.7642   82.5031 C   0  0  0  0  0  0  0  0  0  0  0  0
   44.6569   39.2475   83.9090 C   0  0  0  0  0  0  0  0  0  0  0  0
   43.2344   36.4929   84.4181 C   0  0  0  0  0  0  0  0  0  0  0  0
   43.4507   36.1217   84.3961 C   0  0  0  0  0  0  0  0  0  0  0  0
   43.6602   36.0498   82.5032 N   0  0  0  0  0  0  0  0  0  0  0  0
   44.2223   37.4205   83.7361 C   0  0  0  0  0  0  0  0  0  0  0  0
   43.9128   37.3536   83.9804 C   0  0  0  0  0  0  0  0  0  0  0  0
   45.8285   37.4987   83.7417 C   0  0  0  0  0  0  0  0  0  0  0  0
   43.2614   37.7245   84.0900 C   0  0  0  0  0  0  0  0  0  0  0  0
   45.0072   38.4761   84.9170 C   0  0  0  0  0  0  0  0  0  0  0  0
 13 30  1  0
 14 27  1  0
 27 28  1  0
 24 25  1  0
 17 28  1  0
  9 11  1  0
 13 28  1  0
 17 21  1  0
 17 27  1  0
 14 28  1  0
  7 11  1  0
  3 26  1  0
  5 14  1  0
 15 21  1  0
  2 20  1  0
  2 30  1  0
  6 26  1  0
 14 17  1  0
 10 13  1  0
  8 18  1  0
 21 30  1  0
 10 11  1  0
 13 21  1  0
 16 25  1  0
  7 10  1  0
  5 27  1  0
  3  8  1  0
  1 30  1  0
  7  9  1  0
 15 22  1  0
  5 25  1  0
  5 24  1  0
 18 22  1  0
  6 16  1  0
  7 24  1  0
  1  4  1  0
  4 11  1  0
 23 31  1  0
  6 12  1  0
  4 31  1  0
  8 26  1  0
  6 25  1  0
  9 31  1  0
  4  9  1  0
  8 22  1  0
  1 23  1  0
  1 20  1  0
 22 23  1  0
 29 31  1  0
  1 24  1  0
M  END
$$$$
