
     RDKit          3D

  7  0  0  0  0  0  0  0  0  0999 V2000
   12.5329   34.5615   13.8489 O   0  0  0  0  0 15  0  0  0  0  0  0
   11.9108   33.6454   12.9258 C   0  0  0  0  0 15  0  0  0  0  0  0
   12.8076   36.0974   14.4416 O   0  0  0  0  0 15  0  0  0  0  0  0
   13.3184   35.5401   15.3544 O   0  0  0  0  0 15  0  0  0  0  0  0
   13.2953   34.8927   12.7414 C   0  0  0  0  0 15  0  0  0  0  0  0
   14.3294   34.8942   14.5063 O   0  0  0  0  0 15  0  0  0  0  0  0
   13.6874   33.6324   13.7474 C   0  0  0  0  0 15  0  0  0  0  0  0
M  END
$$$$
