
     RDKit          3D

 23 31  0  0  0  0  0  0  0  0999 V2000
  -24.0742   16.0487  -28.3225 C   0  0  0  0  0  0  0  0  0  0  0  0
  -22.0473   17.6040  -27.2673 C   0  0  0  0  0  0  0  0  0  0  0  0
  -21.0824   16.7934  -26.3012 C   0  0  0  0  0  0  0  0  0  0  0  0
  -21.9580   17.0852  -26.4090 C   0  0  0  0  0  0  0  0  0  0  0  0
  -22.8653   17.2696  -25.5563 C   0  0  0  0  0  0  0  0  0  0  0  0
  -25.4952   18.1387  -25.8828 C   0  0  0  0  0  0  0  0  0  0  0  0
  -21.7707   16.2497  -28.3272 N   0  0  0  0  0  0  0  0  0  0  0  0
  -22.2487   18.1929  -28.8445 C   0  0  0  0  0  0  0  0  0  0  0  0
  -23.7428   19.5538  -28.0848 C   0  0  0  0  0  0  0  0  0  0  0  0
  -20.4867   15.9983  -26.0827 O   0  0  0  0  0  0  0  0  0  0  0  0
  -22.7008   19.1434  -28.2182 O   0  0  0  0  0  0  0  0  0  0  0  0
  -22.6605   17.2871  -24.9128 C   0  0  0  0  0  0  0  0  0  0  0  0
  -23.2626   17.0996  -28.3253 C   0  0  0  0  0  0  0  0  0  0  0  0
  -21.4102   17.4257  -27.7642 O   0  0  0  0  0  0  0  0  0  0  0  0
  -22.4559   16.8450  -26.2245 C   0  0  0  0  0  0  0  0  0  0  0  0
  -21.9992   17.8064  -26.7967 C   0  0  0  0  0  0  0  0  0  0  0  0
  -21.8319   17.7518  -27.1248 O   0  0  0  0  0  0  0  0  0  0  0  0
  -22.7162   17.5683  -28.8436 C   0  0  0  0  0  0  0  0  0  0  0  0
  -22.7948   17.4905  -27.0345 C   0  0  0  0  0  0  0  0  0  0  0  0
  -22.2128   17.6587  -28.3096 C   0  0  0  0  0  0  0  0  0  0  0  0
  -22.2337   15.4612  -27.5404 C   0  0  0  0  0  0  0  0  0  0  0  0
  -23.7564   17.1432  -27.3968 C   0  0  0  0  0  0  0  0  0  0  0  0
  -22.3680   17.2299  -29.0547 C   0  0  0  0  0  0  0  0  0  0  0  0
  2 17  1  0
 16 17  1  0
  2 16  1  0
 18 23  1  0
  4 15  1  0
  5 12  1  0
 18 20  1  0
  8 20  1  0
  8 18  1  0
  2 19  1  0
  4 16  1  0
  2 14  1  0
 20 23  1  0
 13 18  1  0
 16 19  1  0
  5 15  1  0
  3  4  1  0
  8 23  1  0
 14 20  1  0
  3 10  1  0
 13 22  1  0
 19 22  1  0
 15 19  1  0
  9 11  1  0
 13 23  1  0
  7 21  1  0
  8 11  1  0
  4  5  1  0
  1 13  1  0
  3 15  1  0
  1 22  1  0
M  END
$$$$
