
     RDKit          3D

 14  0  0  0  0  0  0  0  0  0999 V2000
    8.9809    3.0529   25.0931 O   0  0  0  0  0 15  0  0  0  0  0  0
    7.9337    6.1965   24.4235 C   0  0  0  0  0 15  0  0  0  0  0  0
    8.4648    4.2806   24.5488 C   0  0  0  0  0 15  0  0  0  0  0  0
    7.0639    5.7008   25.4297 C   0  0  0  0  0 15  0  0  0  0  0  0
    7.6722    3.0420   23.6047 C   0  0  0  0  0 15  0  0  0  0  0  0
    8.1616    5.3877   24.3221 O   0  0  0  0  0 15  0  0  0  0  0  0
    8.2426    4.2805   24.5187 O   0  0  0  0  0 15  0  0  0  0  0  0
    7.7755    3.1163   24.8769 O   0  0  0  0  0 15  0  0  0  0  0  0
    8.6619    3.5886   24.7079 C   0  0  0  0  0 15  0  0  0  0  0  0
    7.8237    3.0133   24.8080 C   0  0  0  0  0 15  0  0  0  0  0  0
    8.2648    3.7570   22.8597 C   0  0  0  0  0 15  0  0  0  0  0  0
    8.4983    3.7795   24.6585 O   0  0  0  0  0 15  0  0  0  0  0  0
    8.4132    1.8481   25.0936 O   0  0  0  0  0 15  0  0  0  0  0  0
    8.2571    4.7833   23.0988 O   0  0  0  0  0 15  0  0  0  0  0  0
M  END
$$$$
