
     RDKit          3D

  8  8  0  0  0  0  0  0  0  0999 V2000
    8.0871  -11.7655  -15.1286 C   0  0  0  0  0  0  0  0  0  0  0  0
    5.9323  -13.4875  -14.8518 C   0  0  0  0  0  0  0  0  0  0  0  0
    5.9055  -12.6451  -16.2517 O   0  0  0  0  0  0  0  0  0  0  0  0
    6.9065  -12.8725  -14.6384 C   0  0  0  0  0  0  0  0  0  0  0  0
    8.7278  -10.5246  -15.5420 O   0  0  0  0  0  0  0  0  0  0  0  0
    6.7449  -11.2583  -16.2976 C   0  0  0  0  0  0  0  0  0  0  0  0
    7.1974  -11.5662  -15.4108 O   0  0  0  0  0  0  0  0  0  0  0  0
    5.6684  -12.8326  -15.4551 O   0  0  0  0  0  0  0  0  0  0  0  0
  3  8  1  0
  2  8  1  0
  1  7  1  0
  6  7  1  0
  2  4  1  0
  1  5  1  0
  3  6  1  0
  1  4  1  0
M  END
$$$$
