
     RDKit          3D

  6  6  0  0  0  0  0  0  0  0999 V2000
   47.9120   53.5987   -1.7205 C   0  0  0  0  0  0  0  0  0  0  0  0
   47.8736   53.5573   -0.5751 C   0  0  0  0  0  0  0  0  0  0  0  0
   46.9462   55.7908   -1.9737 C   0  0  0  0  0  0  0  0  0  0  0  0
   47.1431   55.9501   -1.1328 C   0  0  0  0  0  0  0  0  0  0  0  0
   47.8567   53.9370   -0.2896 O   0  0  0  0  0  0  0  0  0  0  0  0
   47.2012   55.1582   -1.5217 O   0  0  0  0  0  0  0  0  0  0  0  0
  2  5  1  0
  3  6  1  0
  3  4  1  0
  4  6  1  0
  1  2  1  0
  1  5  1  0
M  END
$$$$
