
     RDKit          3D

 38 65  0  0  0  0  0  0  0  0999 V2000
    2.7170   28.7077   48.3154 C   0  0  0  0  0  0  0  0  0  0  0  0
    3.5470   27.7242   49.3817 N   0  0  0  0  0  0  0  0  0  0  0  0
    5.2379   25.3144   49.4573 C   0  0  0  0  0  0  0  0  0  0  0  0
    3.1779   27.5911   49.6728 O   0  0  0  0  0  0  0  0  0  0  0  0
    2.0311   27.1359   48.6246 C   0  0  0  0  0  0  0  0  0  0  0  0
    1.8066   26.7280   48.9335 C   0  0  0  0  0  0  0  0  0  0  0  0
    4.3379   27.6340   48.6598 C   0  0  0  0  0  0  0  0  0  0  0  0
    4.9848   28.1291   49.5732 C   0  0  0  0  0  0  0  0  0  0  0  0
    2.5273   28.4486   48.6407 C   0  0  0  0  0  0  0  0  0  0  0  0
    3.8009   27.7166   49.7442 C   0  0  0  0  0  0  0  0  0  0  0  0
    5.6441   27.2436   49.8505 C   0  0  0  0  0  0  0  0  0  0  0  0
    4.3855   29.7243   48.6685 C   0  0  0  0  0  0  0  0  0  0  0  0
    3.4138   27.8104   48.3841 O   0  0  0  0  0  0  0  0  0  0  0  0
    3.6085   27.0474   48.7355 C   0  0  0  0  0  0  0  0  0  0  0  0
    3.5750   28.2494   51.3074 C   0  0  0  0  0  0  0  0  0  0  0  0
    4.4312   28.5395   48.5257 C   0  0  0  0  0  0  0  0  0  0  0  0
    4.3940   28.6170   50.0104 C   0  0  0  0  0  0  0  0  0  0  0  0
    2.8346   28.2098   48.1245 C   0  0  0  0  0  0  0  0  0  0  0  0
    4.7759   27.4588   50.6628 C   0  0  0  0  0  0  0  0  0  0  0  0
    2.1952   27.7630   49.9170 C   0  0  0  0  0  0  0  0  0  0  0  0
    3.6693   27.6790   49.7635 O   0  0  0  0  0  0  0  0  0  0  0  0
    3.1762   27.6022   49.1391 C   0  0  0  0  0  0  0  0  0  0  0  0
    2.5932   29.0945   49.4009 N   0  0  0  0  0  0  0  0  0  0  0  0
    3.7752   26.9643   49.8578 C   0  0  0  0  0  0  0  0  0  0  0  0
    4.1990   28.1026   50.6833 C   0  0  0  0  0  0  0  0  0  0  0  0
    2.2849   28.4950   50.0820 C   0  0  0  0  0  0  0  0  0  0  0  0
    2.8073   27.9781   49.7765 C   0  0  0  0  0  0  0  0  0  0  0  0
    3.1923   26.9708   48.9650 C   0  0  0  0  0  0  0  0  0  0  0  0
    4.5214   27.2220   48.6785 C   0  0  0  0  0  0  0  0  0  0  0  0
    3.3448   26.8159   50.7879 C   0  0  0  0  0  0  0  0  0  0  0  0
    4.6792   29.4350   47.8089 C   0  0  0  0  0  0  0  0  0  0  0  0
    2.7030   27.4729   47.9747 C   0  0  0  0  0  0  0  0  0  0  0  0
    3.5438   27.9547   48.8434 C   0  0  0  0  0  0  0  0  0  0  0  0
    4.0378   27.0563   49.6589 C   0  0  0  0  0  0  0  0  0  0  0  0
    3.2479   29.2189   47.8319 C   0  0  0  0  0  0  0  0  0  0  0  0
    4.2774   28.3024   48.1545 C   0  0  0  0  0  0  0  0  0  0  0  0
    2.9178   26.9458   49.2828 C   0  0  0  0  0  0  0  0  0  0  0  0
    2.8439   29.3098   49.9442 C   0  0  0  0  0  0  0  0  0  0  0  0
 10 21  1  0
 24 34  1  0
  2 21  1  0
 28 37  1  0
  2 10  1  0
  7 29  1  0
  1  9  1  0
  2 22  1  0
 16 36  1  0
 14 28  1  0
 13 33  1  0
  4 22  1  0
  4 27  1  0
  1 18  1  0
  5  6  1  0
 22 33  1  0
 23 38  1  0
  9 18  1  0
 22 28  1  0
 20 27  1  0
 10 34  1  0
 13 18  1  0
 20 26  1  0
 10 24  1  0
 18 32  1  0
 26 27  1  0
  7 36  1  0
 19 25  1  0
 17 25  1  0
  7 33  1  0
  1 35  1  0
  8 17  1  0
 14 37  1  0
 15 25  1  0
 14 33  1  0
  7 16  1  0
 14 29  1  0
 12 31  1  0
 23 26  1  0
  5 32  1  0
 26 38  1  0
  9 23  1  0
 24 37  1  0
 24 30  1  0
 28 34  1  0
 29 34  1  0
  5 37  1  0
  8 11  1  0
 16 31  1  0
 12 16  1  0
  9 32  1  0
 11 19  1  0
 29 36  1  0
 31 36  1  0
  1 32  1  0
  8 19  1  0
 27 38  1  0
  8 25  1  0
 17 19  1  0
  5 20  1  0
 31 35  1  0
  6 20  1  0
 12 35  1  0
 15 30  1  0
 15 17  1  0
M  END
$$$$
