
     RDKit          3D

  3  2  0  0  0  0  0  0  0  0999 V2000
   70.9019   54.4191   42.4569 O   0  0  0  0  0  0  0  0  0  0  0  0
   71.7653   54.2949   41.9331 O   0  0  0  0  0  0  0  0  0  0  0  0
   71.3890   53.7210   43.1520 C   0  0  0  0  0  0  0  0  0  0  0  0
  1  2  1  0
  1  3  1  0
M  END
$$$$
