
     RDKit          3D

 20 26  0  0  0  0  0  0  0  0999 V2000
   22.4368   21.5816   18.0562 C   0  0  0  0  0  0  0  0  0  0  0  0
   22.2369   21.5822   20.3055 C   0  0  0  0  0  0  0  0  0  0  0  0
   22.3733   22.1416   17.4973 C   0  0  0  0  0  0  0  0  0  0  0  0
   23.5543   22.4505   20.1185 C   0  0  0  0  0  0  0  0  0  0  0  0
   23.6803   21.5809   19.9660 C   0  0  0  0  0  0  0  0  0  0  0  0
   21.0404   19.2377   19.8307 C   0  0  0  0  0  0  0  0  0  0  0  0
   21.6121   22.1742   19.5041 C   0  0  0  0  0  0  0  0  0  0  0  0
   23.1684   20.9149   20.5109 C   0  0  0  0  0  0  0  0  0  0  0  0
   22.5514   21.9000   19.8874 C   0  0  0  0  0  0  0  0  0  0  0  0
   21.7253   21.7597   19.5681 C   0  0  0  0  0  0  0  0  0  0  0  0
   21.8859   20.9960   21.8018 C   0  0  0  0  0  0  0  0  0  0  0  0
   21.1603   20.4663   18.7964 C   0  0  0  0  0  0  0  0  0  0  0  0
   21.5339   23.3696   19.2295 C   0  0  0  0  0  0  0  0  0  0  0  0
   22.6239   22.2345   19.8636 C   0  0  0  0  0  0  0  0  0  0  0  0
   23.3235   21.7135   19.4233 O   0  0  0  0  0  0  0  0  0  0  0  0
   23.7494   21.7194   19.7020 O   0  0  0  0  0  0  0  0  0  0  0  0
   22.3448   22.7422   18.0569 O   0  0  0  0  0  0  0  0  0  0  0  0
   23.6117   21.5013   20.7791 C   0  0  0  0  0  0  0  0  0  0  0  0
   23.9281   21.5742   21.3845 O   0  0  0  0  0  0  0  0  0  0  0  0
   22.8879   20.8481   19.4301 O   0  0  0  0  0  0  0  0  0  0  0  0
  5 16  1  0
  9 14  1  0
  7 10  1  0
 15 16  1  0
  2  9  1  0
  5 15  1  0
 18 19  1  0
  8 18  1  0
  1  3  1  0
  5 18  1  0
  3 17  1  0
  2 14  1  0
  4  5  1  0
  9 10  1  0
  2 10  1  0
  4 14  1  0
  7  9  1  0
 10 14  1  0
  8 20  1  0
  4 18  1  0
  2  8  1  0
  1 17  1  0
  7 13  1  0
  8 19  1  0
  6 12  1  0
  1 20  1  0
M  END
$$$$
