
     RDKit          3D

 27 37  0  0  0  0  0  0  0  0999 V2000
    2.1582   -8.0279   17.2590 C   0  0  0  0  0  0  0  0  0  0  0  0
    3.5685  -10.4849   16.3502 O   0  0  0  0  0  0  0  0  0  0  0  0
    3.3371  -10.4089   18.5670 C   0  0  0  0  0  0  0  0  0  0  0  0
    4.4181  -10.6214   17.3971 O   0  0  0  0  0  0  0  0  0  0  0  0
    1.4579  -10.7756   17.4028 C   0  0  0  0  0  0  0  0  0  0  0  0
    3.8755  -10.5811   16.9481 O   0  0  0  0  0  0  0  0  0  0  0  0
    4.2546  -10.0610   17.7990 C   0  0  0  0  0  0  0  0  0  0  0  0
    4.7813  -11.2224   15.7391 N   0  0  0  0  0  0  0  0  0  0  0  0
    2.1195   -8.6875   17.1156 C   0  0  0  0  0  0  0  0  0  0  0  0
    4.2218  -10.8038   18.0928 N   0  0  0  0  0  0  0  0  0  0  0  0
    3.2873   -9.5279   18.0372 C   0  0  0  0  0  0  0  0  0  0  0  0
    3.6181  -10.0662   17.8897 C   0  0  0  0  0  0  0  0  0  0  0  0
    4.8678  -11.7951   17.3538 N   0  0  0  0  0  0  0  0  0  0  0  0
    2.6883   -9.6767   16.8948 N   0  0  0  0  0  0  0  0  0  0  0  0
    3.4069   -9.7325   19.4954 C   0  0  0  0  0  0  0  0  0  0  0  0
    3.3702   -9.8124   17.4875 N   0  0  0  0  0  0  0  0  0  0  0  0
    4.3439  -11.3041   16.4278 C   0  0  0  0  0  0  0  0  0  0  0  0
    2.3602  -10.1599   15.8002 C   0  0  0  0  0  0  0  0  0  0  0  0
    2.1687  -11.4553   17.4783 S   0  0  0  0  0  0  0  0  0  0  0  0
    1.9395  -10.5143   17.2516 C   0  0  0  0  0  0  0  0  0  0  0  0
    3.4743  -11.8973   16.1786 C   0  0  0  0  0  0  0  0  0  0  0  0
    3.0946   -9.9387   16.2640 C   0  0  0  0  0  0  0  0  0  0  0  0
    3.2723   -9.4268   18.5940 N   0  0  0  0  0  0  0  0  0  0  0  0
    4.8054  -10.7163   18.0011 C   0  0  0  0  0  0  0  0  0  0  0  0
    5.1683  -10.0297   16.3911 C   0  0  0  0  0  0  0  0  0  0  0  0
    4.6021   -8.9733   16.5921 O   0  0  0  0  0  0  0  0  0  0  0  0
    2.1331  -10.0920   18.3079 O   0  0  0  0  0  0  0  0  0  0  0  0
 12 16  1  0
 11 23  1  0
  5 20  1  0
 10 24  1  0
 11 16  1  0
  7 12  1  0
 11 12  1  0
  1  9  1  0
  2  6  1  0
  4  6  1  0
  4  7  1  0
  2 22  1  0
 14 22  1  0
  7 10  1  0
  3 12  1  0
  8 17  1  0
  7 24  1  0
 18 22  1  0
 14 16  1  0
 15 23  1  0
  3 23  1  0
  5 19  1  0
 19 20  1  0
  3 11  1  0
  3 10  1  0
 17 21  1  0
 20 27  1  0
  9 14  1  0
 13 17  1  0
 25 26  1  0
 13 24  1  0
  5 27  1  0
  8 25  1  0
 17 25  1  0
  8 21  1  0
 18 20  1  0
 19 21  1  0
M  END
$$$$
