
     RDKit          3D

 13 11  0  0  0  0  0  0  0  0999 V2000
   20.0890    1.7170    2.3801 C   0  0  0  0  0  0  0  0  0  0  0  0
   19.1921    1.5907    3.7655 C   0  0  0  0  0  0  0  0  0  0  0  0
   20.1211   -0.6817    4.4190 C   0  0  0  0  0  0  0  0  0  0  0  0
   17.4901    1.4706    2.7569 C   0  0  0  0  0  0  0  0  0  0  0  0
   20.7438    2.0093    3.1726 C   0  0  0  0  0  0  0  0  0  0  0  0
   19.7187    2.2093    4.7197 C   0  0  0  0  0  0  0  0  0  0  0  0
   19.2197    0.4818    3.5791 N   0  0  0  0  0  0  0  0  0  0  0  0
   20.1132    0.9553    4.3168 O   0  0  0  0  0  0  0  0  0  0  0  0
   20.4976    2.2966    3.3704 O   0  0  0  0  0  0  0  0  0  0  0  0
   21.8627    2.9947    3.0242 C   0  0  0  0  0  0  0  0  0  0  0  0
   18.1668    2.9619    4.0791 C   0  0  0  0  0  0  0  0  0  0  0  0
   20.3824    2.1035    3.3359 O   0  0  0  0  0  0  0  0  0  0  0  0
   20.3410   -0.0610    4.5225 O   0  0  0  0  0  0  0  0  0  0  0  0
  9 12  1  0
  5 12  1  0
  5  9  1  0
  3 13  1  0
  8 13  1  0
  1  5  1  0
  2  7  1  0
  2  8  1  0
  2  6  1  0
  5 10  1  0
  1  2  1  0
M  END
$$$$
