
     RDKit          3D

 10  0  0  0  0  0  0  0  0  0999 V2000
  -19.2530   35.8661    5.9948 C   0  0  0  0  0 15  0  0  0  0  0  0
  -18.9764   34.4429    6.3648 O   0  0  0  0  0 15  0  0  0  0  0  0
  -19.4623   34.7237    5.9662 O   0  0  0  0  0 15  0  0  0  0  0  0
  -17.9214   35.5780    4.6291 C   0  0  0  0  0 15  0  0  0  0  0  0
  -17.6382   34.3052    4.8487 C   0  0  0  0  0 15  0  0  0  0  0  0
  -17.5585   36.1582    5.2013 O   0  0  0  0  0 15  0  0  0  0  0  0
  -17.8198   36.3008    6.0522 O   0  0  0  0  0 15  0  0  0  0  0  0
  -18.1010   37.1275    5.7829 C   0  0  0  0  0 15  0  0  0  0  0  0
  -19.0759   36.6937    4.9106 O   0  0  0  0  0 15  0  0  0  0  0  0
  -18.2583   36.3875    5.7409 C   0  0  0  0  0 15  0  0  0  0  0  0
M  END
$$$$
