
     RDKit          3D

  8  0  0  0  0  0  0  0  0  0999 V2000
    1.4898  107.7012   24.1131 O   0  0  0  0  0 15  0  0  0  0  0  0
    1.2077  109.2729   22.8885 O   0  0  0  0  0 15  0  0  0  0  0  0
    2.9278  109.0927   24.0036 O   0  0  0  0  0 15  0  0  0  0  0  0
    2.0543  109.9470   22.6490 O   0  0  0  0  0 15  0  0  0  0  0  0
    1.7942  108.6883   25.0468 O   0  0  0  0  0 15  0  0  0  0  0  0
    2.7187  108.2524   24.9749 C   0  0  0  0  0 15  0  0  0  0  0  0
    2.0654  108.2922   24.3999 C   0  0  0  0  0 15  0  0  0  0  0  0
    1.8689  108.4788   22.4344 C   0  0  0  0  0 15  0  0  0  0  0  0
M  END
$$$$
