
     RDKit          3D

 50 75  0  0  0  0  0  0  0  0999 V2000
  -24.9771    3.0976  -32.5487 C   0  0  0  0  0  0  0  0  0  0  0  0
  -24.3133    2.2319  -33.8019 C   0  0  0  0  0  0  0  0  0  0  0  0
  -24.5226    1.3377  -32.0370 C   0  0  0  0  0  0  0  0  0  0  0  0
  -26.1306    3.3653  -32.3807 C   0  0  0  0  0  0  0  0  0  0  0  0
  -25.0128    4.4494  -31.9996 C   0  0  0  0  0  0  0  0  0  0  0  0
  -24.7257    1.8502  -31.4073 C   0  0  0  0  0  0  0  0  0  0  0  0
  -24.4487    2.0647  -31.4559 C   0  0  0  0  0  0  0  0  0  0  0  0
  -25.6556    0.7333  -32.7840 C   0  0  0  0  0  0  0  0  0  0  0  0
  -25.1151    1.7429  -34.1653 O   0  0  0  0  0  0  0  0  0  0  0  0
  -25.7022    3.2851  -32.1877 O   0  0  0  0  0  0  0  0  0  0  0  0
  -23.6758    2.4269  -32.3862 C   0  0  0  0  0  0  0  0  0  0  0  0
  -24.7738    2.3204  -31.7431 C   0  0  0  0  0  0  0  0  0  0  0  0
  -24.2950    4.0548  -33.1374 O   0  0  0  0  0  0  0  0  0  0  0  0
  -24.6426    2.3511  -33.8784 C   0  0  0  0  0  0  0  0  0  0  0  0
  -23.3817    2.6391  -33.1471 C   0  0  0  0  0  0  0  0  0  0  0  0
  -24.0871    1.2498  -33.6484 C   0  0  0  0  0  0  0  0  0  0  0  0
  -25.6026    1.6462  -33.1518 C   0  0  0  0  0  0  0  0  0  0  0  0
  -26.2625    2.3324  -32.1718 O   0  0  0  0  0  0  0  0  0  0  0  0
  -24.4732    0.7347  -33.2735 C   0  0  0  0  0  0  0  0  0  0  0  0
  -25.2229    3.5076  -32.8975 C   0  0  0  0  0  0  0  0  0  0  0  0
  -23.9018    2.1845  -33.3513 C   0  0  0  0  0  0  0  0  0  0  0  0
  -26.5834    3.2939  -35.1318 O   0  0  0  0  0  0  0  0  0  0  0  0
  -26.5700    2.5738  -29.9452 C   0  0  0  0  0  0  0  0  0  0  0  0
  -25.4402    2.9929  -33.8172 C   0  0  0  0  0  0  0  0  0  0  0  0
  -24.8162    2.6399  -35.1907 C   0  0  0  0  0  0  0  0  0  0  0  0
  -24.2683    4.4336  -34.4236 C   0  0  0  0  0  0  0  0  0  0  0  0
  -23.1637    2.4351  -31.4903 O   0  0  0  0  0  0  0  0  0  0  0  0
  -24.5960   -0.4720  -33.1215 C   0  0  0  0  0  0  0  0  0  0  0  0
  -23.3042    2.2746  -32.4057 C   0  0  0  0  0  0  0  0  0  0  0  0
  -24.6788    1.5486  -31.3308 C   0  0  0  0  0  0  0  0  0  0  0  0
  -25.3092    2.4792  -33.2731 O   0  0  0  0  0  0  0  0  0  0  0  0
  -25.9942    2.5219  -33.1614 N   0  0  0  0  0  0  0  0  0  0  0  0
  -25.2692    0.4986  -32.3260 C   0  0  0  0  0  0  0  0  0  0  0  0
  -23.7444    2.8228  -32.7389 O   0  0  0  0  0  0  0  0  0  0  0  0
  -24.4230    2.3360  -33.8629 C   0  0  0  0  0  0  0  0  0  0  0  0
  -25.6473    3.1636  -30.7967 C   0  0  0  0  0  0  0  0  0  0  0  0
  -24.9514    4.4740  -32.6632 C   0  0  0  0  0  0  0  0  0  0  0  0
  -24.7075    1.0153  -30.7726 C   0  0  0  0  0  0  0  0  0  0  0  0
  -25.7709    3.8620  -32.9032 N   0  0  0  0  0  0  0  0  0  0  0  0
  -25.2966    1.9235  -32.0546 N   0  0  0  0  0  0  0  0  0  0  0  0
  -25.2828    1.1603  -32.3633 C   0  0  0  0  0  0  0  0  0  0  0  0
  -23.3586    1.9594  -32.3067 C   0  0  0  0  0  0  0  0  0  0  0  0
  -23.9244    2.1586  -32.8346 N   0  0  0  0  0  0  0  0  0  0  0  0
  -26.4767    2.9142  -31.7148 C   0  0  0  0  0  0  0  0  0  0  0  0
  -25.6606    4.4149  -31.1879 O   0  0  0  0  0  0  0  0  0  0  0  0
  -24.7247    4.1079  -33.1661 N   0  0  0  0  0  0  0  0  0  0  0  0
  -25.2712    3.0169  -33.7310 O   0  0  0  0  0  0  0  0  0  0  0  0
  -23.8295    2.7888  -33.0177 C   0  0  0  0  0  0  0  0  0  0  0  0
  -23.4032    3.4234  -31.8384 C   0  0  0  0  0  0  0  0  0  0  0  0
  -24.1665    3.3023  -32.5195 C   0  0  0  0  0  0  0  0  0  0  0  0
  2 35  1  0
 24 47  1  0
 14 35  1  0
 34 48  1  0
  6 30  1  0
 29 42  1  0
  6  7  1  0
  2 14  1  0
 11 29  1  0
 13 46  1  0
  4 10  1  0
 15 48  1  0
  7 12  1  0
 21 43  1  0
 11 34  1  0
 11 42  1  0
 11 43  1  0
  7 30  1  0
  6 12  1  0
  1 20  1  0
  2 21  1  0
  8 33  1  0
 20 39  1  0
 37 46  1  0
 33 41  1  0
 43 48  1  0
  5 37  1  0
 21 48  1  0
 31 32  1  0
  8 41  1  0
 31 47  1  0
 15 21  1  0
 12 40  1  0
 16 19  1  0
  3 30  1  0
 18 44  1  0
 30 38  1  0
  4 39  1  0
  9 14  1  0
 40 41  1  0
 20 46  1  0
 15 29  1  0
  1 10  1  0
  1 50  1  0
  3  6  1  0
  3 41  1  0
  4 44  1  0
 13 37  1  0
  3  7  1  0
 27 29  1  0
 17 32  1  0
  9 35  1  0
 27 42  1  0
 24 32  1  0
  8 17  1  0
  2 16  1  0
 14 24  1  0
 49 50  1  0
 20 37  1  0
  5 45  1  0
 18 40  1  0
 15 42  1  0
  1 12  1  0
 16 35  1  0
 19 28  1  0
 19 33  1  0
 36 44  1  0
  8 19  1  0
 24 39  1  0
 36 45  1  0
 23 36  1  0
 28 33  1  0
  5 50  1  0
  4  5  1  0
 16 17  1  0
M  END
$$$$
