
     RDKit          3D

 10  0  0  0  0  0  0  0  0  0999 V2000
   43.1768   39.3339   84.3363 O   0  0  0  0  0 15  0  0  0  0  0  0
   42.7954   38.6218   83.3972 O   0  0  0  0  0 15  0  0  0  0  0  0
   43.7671   37.2822   82.3605 C   0  0  0  0  0 15  0  0  0  0  0  0
   43.6251   38.8138   85.4044 O   0  0  0  0  0 15  0  0  0  0  0  0
   43.7579   37.1690   83.5993 O   0  0  0  0  0 15  0  0  0  0  0  0
   43.8147   36.2600   82.9789 C   0  0  0  0  0 15  0  0  0  0  0  0
   43.8427   37.3570   85.0236 C   0  0  0  0  0 15  0  0  0  0  0  0
   44.6056   37.5182   85.4634 C   0  0  0  0  0 15  0  0  0  0  0  0
   44.2399   37.4241   83.6845 C   0  0  0  0  0 15  0  0  0  0  0  0
   43.5587   38.2653   83.4001 C   0  0  0  0  0 15  0  0  0  0  0  0
M  END
$$$$
