
     RDKit          3D

 17 21  0  0  0  0  0  0  0  0999 V2000
    9.8018  -18.0122  -12.3317 C   0  0  0  0  0  0  0  0  0  0  0  0
   11.5456  -17.0304  -11.1583 C   0  0  0  0  0  0  0  0  0  0  0  0
    8.9874  -16.9124   -9.5970 C   0  0  0  0  0  0  0  0  0  0  0  0
    8.3402  -18.8054  -11.2897 C   0  0  0  0  0  0  0  0  0  0  0  0
    9.6051  -16.8069  -11.9270 C   0  0  0  0  0  0  0  0  0  0  0  0
    9.9070  -17.9178  -11.6091 C   0  0  0  0  0  0  0  0  0  0  0  0
   10.0189  -17.1131  -10.1707 O   0  0  0  0  0  0  0  0  0  0  0  0
   10.6973  -15.0332  -12.2536 O   0  0  0  0  0  0  0  0  0  0  0  0
    8.5050  -16.7706   -9.8387 C   0  0  0  0  0  0  0  0  0  0  0  0
   12.2102  -18.4478  -11.8768 C   0  0  0  0  0  0  0  0  0  0  0  0
    9.2650  -16.3494  -13.2348 C   0  0  0  0  0  0  0  0  0  0  0  0
    9.8677  -16.6831  -13.3809 C   0  0  0  0  0  0  0  0  0  0  0  0
   11.3914  -20.2200  -11.4153 C   0  0  0  0  0  0  0  0  0  0  0  0
    9.9837  -15.8038  -12.7612 C   0  0  0  0  0  0  0  0  0  0  0  0
   10.3439  -15.9969  -11.8944 C   0  0  0  0  0  0  0  0  0  0  0  0
   10.3115  -18.1025  -11.7495 C   0  0  0  0  0  0  0  0  0  0  0  0
   10.2584  -17.5925  -13.6539 O   0  0  0  0  0  0  0  0  0  0  0  0
  6 16  1  0
  3  9  1  0
 11 12  1  0
  1  6  1  0
  1 16  1  0
 14 15  1  0
 11 14  1  0
 12 17  1  0
 12 14  1  0
  8 15  1  0
  5 15  1  0
  8 14  1  0
  5  6  1  0
  3  7  1  0
  1  5  1  0
  5 11  1  0
  1 17  1  0
  7  9  1  0
 12 15  1  0
  2 10  1  0
  2 16  1  0
M  END
$$$$
