
     RDKit          3D

 14 16  0  0  0  0  0  0  0  0999 V2000
  -22.2313   -2.1856  -30.2551 C   0  0  0  0  0  0  0  0  0  0  0  0
  -21.3238   -1.4255  -28.0390 C   0  0  0  0  0  0  0  0  0  0  0  0
  -22.0027   -1.9552  -30.1497 C   0  0  0  0  0  0  0  0  0  0  0  0
  -21.7023   -3.4977  -29.6579 C   0  0  0  0  0  0  0  0  0  0  0  0
  -21.9177   -1.5278  -29.3704 C   0  0  0  0  0  0  0  0  0  0  0  0
  -21.3674   -0.7255  -30.2549 C   0  0  0  0  0  0  0  0  0  0  0  0
  -21.5627   -2.5557  -28.3675 C   0  0  0  0  0  0  0  0  0  0  0  0
  -20.4495   -2.8909  -30.5063 N   0  0  0  0  0  0  0  0  0  0  0  0
  -22.2887   -2.3523  -31.2961 O   0  0  0  0  0  0  0  0  0  0  0  0
  -20.3941   -1.9831  -29.9585 O   0  0  0  0  0  0  0  0  0  0  0  0
  -22.0132   -1.8052  -29.5254 O   0  0  0  0  0  0  0  0  0  0  0  0
  -23.0901   -1.9157  -29.2652 O   0  0  0  0  0  0  0  0  0  0  0  0
  -19.1132   -2.6031  -29.8775 C   0  0  0  0  0  0  0  0  0  0  0  0
  -20.3695   -0.6955  -31.0614 O   0  0  0  0  0  0  0  0  0  0  0  0
  5 11  1  0
  1  3  1  0
  3 11  1  0
  3  5  1  0
  1  9  1  0
  8 10  1  0
  1  5  1  0
  2  7  1  0
  5 12  1  0
  3  9  1  0
  6 14  1  0
  1 12  1  0
 10 13  1  0
  8 13  1  0
  4  7  1  0
  4  8  1  0
M  END
$$$$
