
     RDKit          3D

 32 46  0  0  0  0  0  0  0  0999 V2000
   -0.1702   15.6433  -26.9182 C   0  0  0  0  0  0  0  0  0  0  0  0
   -1.4387   16.2960  -26.0393 C   0  0  0  0  0  0  0  0  0  0  0  0
   -2.4070   16.0350  -27.0436 C   0  0  0  0  0  0  0  0  0  0  0  0
   -1.7038   14.7692  -26.4407 C   0  0  0  0  0  0  0  0  0  0  0  0
   -2.0415   16.5384  -27.8319 C   0  0  0  0  0  0  0  0  0  0  0  0
   -2.7428   16.7592  -26.6116 C   0  0  0  0  0  0  0  0  0  0  0  0
   -1.4642   15.4852  -27.3316 N   0  0  0  0  0  0  0  0  0  0  0  0
   -1.7332   14.9743  -27.8025 C   0  0  0  0  0  0  0  0  0  0  0  0
   -1.3746   16.1207  -27.3453 O   0  0  0  0  0  0  0  0  0  0  0  0
    0.7174   14.3593  -27.3182 N   0  0  0  0  0  0  0  0  0  0  0  0
   -1.4400   14.8807  -28.3851 C   0  0  0  0  0  0  0  0  0  0  0  0
   -0.5205   16.0930  -26.0698 C   0  0  0  0  0  0  0  0  0  0  0  0
   -1.7095   14.6879  -26.8950 C   0  0  0  0  0  0  0  0  0  0  0  0
   -0.8078   15.9175  -25.9646 C   0  0  0  0  0  0  0  0  0  0  0  0
    0.6271   16.0749  -28.4665 C   0  0  0  0  0  0  0  0  0  0  0  0
   -1.8761   16.2216  -27.7911 C   0  0  0  0  0  0  0  0  0  0  0  0
   -2.8497   15.3019  -26.5937 F   0  0  0  0  0  0  0  0  0  0  0  0
   -1.9236   14.1810  -24.5653 C   0  0  0  0  0  0  0  0  0  0  0  0
   -2.6631   16.8691  -27.7881 F   0  0  0  0  0  0  0  0  0  0  0  0
   -1.8372   15.5202  -25.7780 F   0  0  0  0  0  0  0  0  0  0  0  0
   -0.4448   15.5050  -27.4426 C   0  0  0  0  0  0  0  0  0  0  0  0
   -1.2498   13.5722  -27.8832 C   0  0  0  0  0  0  0  0  0  0  0  0
    0.1000   15.8435  -28.1326 C   0  0  0  0  0  0  0  0  0  0  0  0
   -0.9872   14.6612  -27.2119 S   0  0  0  0  0  0  0  0  0  0  0  0
   -1.0904   13.4928  -27.3416 C   0  0  0  0  0  0  0  0  0  0  0  0
   -1.5541   15.8069  -29.0307 S   0  0  0  0  0  0  0  0  0  0  0  0
   -1.6648   15.2448  -28.9435 O   0  0  0  0  0  0  0  0  0  0  0  0
   -0.4100   14.9976  -27.3994 O   0  0  0  0  0  0  0  0  0  0  0  0
   -0.9013   14.8529  -27.2849 N   0  0  0  0  0  0  0  0  0  0  0  0
   -1.5605   17.3119  -27.9292 C   0  0  0  0  0  0  0  0  0  0  0  0
   -2.0050   16.4219  -29.3890 C   0  0  0  0  0  0  0  0  0  0  0  0
   -0.3645   15.1152  -26.5843 C   0  0  0  0  0  0  0  0  0  0  0  0
 24 29  1  0
 12 14  1  0
  5 16  1  0
  4 13  1  0
 21 28  1  0
 28 29  1  0
 22 25  1  0
 26 27  1  0
  1 21  1  0
  7  9  1  0
  1 32  1  0
  8 11  1  0
 15 23  1  0
  9 16  1  0
 11 27  1  0
  5 19  1  0
  2 14  1  0
  7  8  1  0
 13 24  1  0
 21 29  1  0
 26 31  1  0
  3  6  1  0
  2 20  1  0
  5 30  1  0
  3 16  1  0
  2 12  1  0
  7 13  1  0
 21 23  1  0
  8 13  1  0
  3 17  1  0
 24 32  1  0
  8 24  1  0
  3  5  1  0
  1 12  1  0
  4 24  1  0
 14 32  1  0
 12 32  1  0
 11 26  1  0
 16 30  1  0
  1 14  1  0
 24 25  1  0
 11 22  1  0
  2  6  1  0
  4 25  1  0
 26 30  1  0
 23 26  1  0
M  END
$$$$
