
     RDKit          3D

 15 21  0  0  0  0  0  0  0  0999 V2000
  -25.6690   35.2085  -45.4128 C   0  0  0  0  0  0  0  0  0  0  0  0
  -25.3060   34.7875  -47.3496 O   0  0  0  0  0  0  0  0  0  0  0  0
  -25.2806   34.8124  -45.1945 C   0  0  0  0  0  0  0  0  0  0  0  0
  -25.7117   34.2300  -47.2867 C   0  0  0  0  0  0  0  0  0  0  0  0
  -27.4236   35.8997  -46.4379 C   0  0  0  0  0  0  0  0  0  0  0  0
  -24.4368   34.8448  -44.8767 C   0  0  0  0  0  0  0  0  0  0  0  0
  -25.7805   34.6460  -46.1249 C   0  0  0  0  0  0  0  0  0  0  0  0
  -25.1381   35.2343  -46.4732 C   0  0  0  0  0  0  0  0  0  0  0  0
  -24.5764   34.5478  -46.1185 C   0  0  0  0  0  0  0  0  0  0  0  0
  -25.4124   33.6196  -47.0645 O   0  0  0  0  0  0  0  0  0  0  0  0
  -26.0968   33.7178  -46.2175 C   0  0  0  0  0  0  0  0  0  0  0  0
  -23.6163   35.4629  -45.0813 C   0  0  0  0  0  0  0  0  0  0  0  0
  -24.5996   35.1393  -44.9256 O   0  0  0  0  0  0  0  0  0  0  0  0
  -23.0573   34.7817  -45.9076 C   0  0  0  0  0  0  0  0  0  0  0  0
  -24.9506   34.3236  -48.2921 O   0  0  0  0  0  0  0  0  0  0  0  0
  6 13  1  0
  1  3  1  0
  2  4  1  0
  4 10  1  0
  3 13  1  0
  3  6  1  0
  1  7  1  0
  7  8  1  0
  8  9  1  0
  7 11  1  0
  2  8  1  0
  6 12  1  0
  3  7  1  0
 10 11  1  0
  1  8  1  0
 12 14  1  0
  4 11  1  0
  4 15  1  0
  6  9  1  0
  1  9  1  0
  9 14  1  0
M  END
$$$$
