
     RDKit          3D

  5  0  0  0  0  0  0  0  0  0999 V2000
   64.5204   98.4426   26.8026 O   0  0  0  0  0 15  0  0  0  0  0  0
   65.0991   99.4210   28.5700 O   0  0  0  0  0 15  0  0  0  0  0  0
   63.6555   99.4950   27.0966 O   0  0  0  0  0 15  0  0  0  0  0  0
   65.6251   98.9488   28.5380 C   0  0  0  0  0 15  0  0  0  0  0  0
   64.5155   98.1554   26.8766 C   0  0  0  0  0 15  0  0  0  0  0  0
M  END
$$$$
