
     RDKit          3D

  5  0  0  0  0  0  0  0  0  0999 V2000
   26.4660   49.1567   21.8338 O   0  0  0  0  0 15  0  0  0  0  0  0
   27.4402   49.1776   22.8539 O   0  0  0  0  0 15  0  0  0  0  0  0
   26.3255   50.7662   23.3124 O   0  0  0  0  0 15  0  0  0  0  0  0
   27.7711   49.6289   22.6921 O   0  0  0  0  0 15  0  0  0  0  0  0
   28.3978   49.3101   22.4908 C   0  0  0  0  0 15  0  0  0  0  0  0
M  END
$$$$
