
     RDKit          3D

 11  0  0  0  0  0  0  0  0  0999 V2000
    1.7040   -3.4754   16.8370 O   0  0  0  0  0 15  0  0  0  0  0  0
    1.8340   -3.7994   17.4277 O   0  0  0  0  0 15  0  0  0  0  0  0
    2.2146   -2.5494   18.9525 C   0  0  0  0  0 15  0  0  0  0  0  0
    1.1057   -3.9864   16.9194 C   0  0  0  0  0 15  0  0  0  0  0  0
    1.4332   -4.1850   17.4247 O   0  0  0  0  0 15  0  0  0  0  0  0
    1.0216   -2.3327   17.9195 O   0  0  0  0  0 15  0  0  0  0  0  0
    2.2796   -2.9984   17.0311 O   0  0  0  0  0 15  0  0  0  0  0  0
    0.4900   -2.2492   18.7465 C   0  0  0  0  0 15  0  0  0  0  0  0
    1.8301   -2.4950   16.0285 C   0  0  0  0  0 15  0  0  0  0  0  0
    1.3492   -2.1918   17.7159 C   0  0  0  0  0 15  0  0  0  0  0  0
    1.8265   -2.0237   17.3906 C   0  0  0  0  0 15  0  0  0  0  0  0
M  END
$$$$
