
     RDKit          3D

 17 21  0  0  0  0  0  0  0  0999 V2000
   51.5074   14.0165   82.2144 N   0  0  0  0  0  0  0  0  0  0  0  0
   53.3544   16.3517   82.5967 C   0  0  0  0  0  0  0  0  0  0  0  0
   53.6908   12.8705   81.9660 O   0  0  0  0  0  0  0  0  0  0  0  0
   54.7741   12.9356   81.4528 C   0  0  0  0  0  0  0  0  0  0  0  0
   52.3709   13.8193   79.5704 C   0  0  0  0  0  0  0  0  0  0  0  0
   53.7946   12.7624   82.9229 O   0  0  0  0  0  0  0  0  0  0  0  0
   55.0128   15.0602   80.8732 C   0  0  0  0  0  0  0  0  0  0  0  0
   53.9706   14.2342   81.3608 C   0  0  0  0  0  0  0  0  0  0  0  0
   52.5790   13.3108   80.9081 O   0  0  0  0  0  0  0  0  0  0  0  0
   52.7457   13.9802   83.2321 C   0  0  0  0  0  0  0  0  0  0  0  0
   51.6497   13.6920   82.0163 C   0  0  0  0  0  0  0  0  0  0  0  0
   53.9341   15.1000   80.4762 O   0  0  0  0  0  0  0  0  0  0  0  0
   51.8216   14.7091   81.9574 C   0  0  0  0  0  0  0  0  0  0  0  0
   51.9107   13.9876   82.5030 C   0  0  0  0  0  0  0  0  0  0  0  0
   52.1052   14.3526   81.7135 C   0  0  0  0  0  0  0  0  0  0  0  0
   52.5585   13.8594   81.5388 C   0  0  0  0  0  0  0  0  0  0  0  0
   53.1200   12.8066   81.3383 C   0  0  0  0  0  0  0  0  0  0  0  0
  1 11  1  0
  1 14  1  0
 13 15  1  0
 11 14  1  0
 15 16  1  0
  1 13  1  0
  9 16  1  0
  3 17  1  0
  9 17  1  0
 11 15  1  0
 14 15  1  0
 13 14  1  0
  3  6  1  0
 11 13  1  0
  7 12  1  0
 16 17  1  0
  8 12  1  0
  7  8  1  0
  8 16  1  0
  4  8  1  0
  4 17  1  0
M  END
$$$$
