
     RDKit          3D

  8  0  0  0  0  0  0  0  0  0999 V2000
   22.4421    7.6531   26.7205 O   0  0  0  0  0 15  0  0  0  0  0  0
   24.8174    8.6970   28.0629 O   0  0  0  0  0 15  0  0  0  0  0  0
   23.9961    6.6444   27.0295 C   0  0  0  0  0 15  0  0  0  0  0  0
   23.9758    8.4354   28.4039 O   0  0  0  0  0 15  0  0  0  0  0  0
   24.3383    8.5485   26.4036 C   0  0  0  0  0 15  0  0  0  0  0  0
   24.0042    7.3683   29.0304 C   0  0  0  0  0 15  0  0  0  0  0  0
   23.2596    6.2637   27.2912 O   0  0  0  0  0 15  0  0  0  0  0  0
   24.5279    8.2501   26.8657 C   0  0  0  0  0 15  0  0  0  0  0  0
M  END
$$$$
