
     RDKit          3D

  4  0  0  0  0  0  0  0  0  0999 V2000
   21.1680  -50.2620   52.9709 O   0  0  0  0  0 15  0  0  0  0  0  0
   22.3187  -49.4419   53.4002 O   0  0  0  0  0 15  0  0  0  0  0  0
   21.3212  -50.3517   52.5586 O   0  0  0  0  0 15  0  0  0  0  0  0
   22.1028  -49.0632   52.4255 O   0  0  0  0  0 15  0  0  0  0  0  0
M  END
$$$$
