
     RDKit          3D

 20 21  0  0  0  0  0  0  0  0999 V2000
   35.4901   17.2252   36.3469 C   0  0  0  0  0  0  0  0  0  0  0  0
   35.0917   17.4290   37.8298 C   0  0  0  0  0  0  0  0  0  0  0  0
   33.9791   16.4166   37.6830 C   0  0  0  0  0  0  0  0  0  0  0  0
   36.8571   17.1994   35.8653 C   0  0  0  0  0  0  0  0  0  0  0  0
   33.6691   20.2705   38.5091 C   0  0  0  0  0  0  0  0  0  0  0  0
   34.8327   18.4416   35.3562 C   0  0  0  0  0  0  0  0  0  0  0  0
   34.5485   18.1999   37.4287 O   0  0  0  0  0  0  0  0  0  0  0  0
   35.4155   15.1086   36.2573 O   0  0  0  0  0  0  0  0  0  0  0  0
   34.5502   18.8486   35.4314 O   0  0  0  0  0  0  0  0  0  0  0  0
   34.9285   18.0142   37.9444 O   0  0  0  0  0  0  0  0  0  0  0  0
   36.3133   16.8481   35.8338 O   0  0  0  0  0  0  0  0  0  0  0  0
   34.0502   17.0169   36.7673 P   0  0  0  0  0  0  0  0  0  0  0  0
   36.8032   17.9045   36.0849 O   0  0  0  0  0  0  0  0  0  0  0  0
   34.3516   18.5968   39.2225 O   0  0  0  0  0  0  0  0  0  0  0  0
   34.0421   17.2962   37.7910 O   0  0  0  0  0  0  0  0  0  0  0  0
   35.0682   18.6758   37.0105 O   0  0  0  0  0  0  0  0  0  0  0  0
   32.3795   18.5388   36.0257 P   0  0  0  0  0  0  0  0  0  0  0  0
   36.4599   16.7018   37.1151 O   0  0  0  0  0  0  0  0  0  0  0  0
   35.8747   18.4825   37.0475 O   0  0  0  0  0  0  0  0  0  0  0  0
   33.7744   16.5074   36.4195 O   0  0  0  0  0  0  0  0  0  0  0  0
  6  9  1  0
  2 10  1  0
  4 11  1  0
  7 10  1  0
 12 20  1  0
  4 13  1  0
  7 16  1  0
 16 19  1  0
  3 15  1  0
  1 11  1  0
  2 15  1  0
  3 12  1  0
  3 20  1  0
  1 18  1  0
  4 18  1  0
  1  4  1  0
 13 19  1  0
  2  3  1  0
  1 12  1  0
  2 12  1  0
 12 17  1  0
M  END
$$$$
