
     RDKit          3D

 42 64  0  0  0  0  0  0  0  0999 V2000
  -17.3777   19.5126  -12.0460 N   0  0  0  0  0  0  0  0  0  0  0  0
  -18.3009   21.8970  -12.5577 C   0  0  0  0  0  0  0  0  0  0  0  0
  -19.0036   18.0281  -11.4710 O   0  0  0  0  0  0  0  0  0  0  0  0
  -17.1402   19.0040  -10.7912 N   0  0  0  0  0  0  0  0  0  0  0  0
  -15.1191   20.0837  -10.2247 C   0  0  0  0  0  0  0  0  0  0  0  0
  -16.5244   22.0674  -14.0932 O   0  0  0  0  0  0  0  0  0  0  0  0
  -17.0983   21.1461  -10.8384 C   0  0  0  0  0  0  0  0  0  0  0  0
  -15.4191   21.1724  -11.0555 C   0  0  0  0  0  0  0  0  0  0  0  0
  -13.8084   21.7252  -11.5366 C   0  0  0  0  0  0  0  0  0  0  0  0
  -18.2144   19.0706  -10.7653 C   0  0  0  0  0  0  0  0  0  0  0  0
  -15.8200   18.9926  -13.4607 C   0  0  0  0  0  0  0  0  0  0  0  0
  -16.3094   19.6094  -11.2090 C   0  0  0  0  0  0  0  0  0  0  0  0
  -16.3773   19.9160  -12.1741 C   0  0  0  0  0  0  0  0  0  0  0  0
  -16.2560   19.7154  -11.2195 C   0  0  0  0  0  0  0  0  0  0  0  0
  -16.6547   19.7182  -12.6619 C   0  0  0  0  0  0  0  0  0  0  0  0
  -17.1049   19.3234  -11.3426 C   0  0  0  0  0  0  0  0  0  0  0  0
  -15.5552   17.7116  -10.3526 C   0  0  0  0  0  0  0  0  0  0  0  0
  -14.8685   19.0601   -9.1835 C   0  0  0  0  0  0  0  0  0  0  0  0
  -15.7757   20.8714  -12.2001 C   0  0  0  0  0  0  0  0  0  0  0  0
  -16.2747   19.3321  -10.8520 N   0  0  0  0  0  0  0  0  0  0  0  0
  -16.4910   20.0603  -11.7211 C   0  0  0  0  0  0  0  0  0  0  0  0
  -15.3506   20.4569  -10.2109 C   0  0  0  0  0  0  0  0  0  0  0  0
  -16.0971   21.5193  -10.1805 C   0  0  0  0  0  0  0  0  0  0  0  0
  -15.7870   20.1079  -10.4424 O   0  0  0  0  0  0  0  0  0  0  0  0
  -16.3603   20.3927  -11.1448 N   0  0  0  0  0  0  0  0  0  0  0  0
  -16.6560   20.2965  -11.4164 C   0  0  0  0  0  0  0  0  0  0  0  0
  -16.4630   21.1071  -12.7610 C   0  0  0  0  0  0  0  0  0  0  0  0
  -15.1293   18.5232  -11.1495 C   0  0  0  0  0  0  0  0  0  0  0  0
  -15.0947   19.8222  -11.3379 C   0  0  0  0  0  0  0  0  0  0  0  0
  -15.1421   20.2331  -10.8029 C   0  0  0  0  0  0  0  0  0  0  0  0
  -15.3241   20.4347  -12.3489 C   0  0  0  0  0  0  0  0  0  0  0  0
  -16.6754   20.0938  -12.4492 C   0  0  0  0  0  0  0  0  0  0  0  0
  -15.3587   18.7295  -11.9091 C   0  0  0  0  0  0  0  0  0  0  0  0
  -15.9300   21.3197  -10.7972 O   0  0  0  0  0  0  0  0  0  0  0  0
  -16.8525   20.1606  -12.7126 N   0  0  0  0  0  0  0  0  0  0  0  0
  -15.2302   21.9193  -12.8575 C   0  0  0  0  0  0  0  0  0  0  0  0
  -16.0959   19.0576  -12.1760 C   0  0  0  0  0  0  0  0  0  0  0  0
  -14.9247   20.0899  -11.6155 C   0  0  0  0  0  0  0  0  0  0  0  0
  -16.3794   20.2726  -12.3728 C   0  0  0  0  0  0  0  0  0  0  0  0
  -15.8467   20.1242  -11.7687 C   0  0  0  0  0  0  0  0  0  0  0  0
  -17.1832   20.8137  -11.8999 C   0  0  0  0  0  0  0  0  0  0  0  0
  -16.8220   19.3444  -10.4984 C   0  0  0  0  0  0  0  0  0  0  0  0
 12 14  1  0
 32 35  1  0
 32 39  1  0
 13 39  1  0
 25 26  1  0
 21 26  1  0
 29 38  1  0
 15 32  1  0
  5 22  1  0
 13 32  1  0
 12 20  1  0
 15 35  1  0
 13 21  1  0
 14 20  1  0
  4 42  1  0
  8 34  1  0
 35 39  1  0
 13 15  1  0
  5 30  1  0
 22 24  1  0
  4 16  1  0
 19 31  1  0
 21 40  1  0
 20 42  1  0
 14 21  1  0
 22 30  1  0
 23 34  1  0
 29 30  1  0
 15 39  1  0
 14 25  1  0
  5 24  1  0
  1 16  1  0
 12 25  1  0
 12 26  1  0
 28 33  1  0
 31 40  1  0
 33 37  1  0
 30 38  1  0
 19 40  1  0
 26 41  1  0
 16 42  1  0
 31 38  1  0
 29 40  1  0
 19 27  1  0
  4 10  1  0
  8 22  1  0
  7 41  1  0
  5 29  1  0
  8 23  1  0
 27 41  1  0
 17 28  1  0
  8 19  1  0
  7 23  1  0
 10 16  1  0
 11 37  1  0
  1 41  1  0
  1 37  1  0
 27 31  1  0
 10 42  1  0
 33 38  1  0
 27 36  1  0
  3 10  1  0
 28 37  1  0
 11 33  1  0
M  END
$$$$
