
     RDKit          3D

  9  0  0  0  0  0  0  0  0  0999 V2000
   24.3991  -21.4754  -11.0612 C   0  0  0  0  0 15  0  0  0  0  0  0
   23.6913  -22.4476  -10.6816 C   0  0  0  0  0 15  0  0  0  0  0  0
   23.9625  -21.1184  -12.5747 O   0  0  0  0  0 15  0  0  0  0  0  0
   25.2946  -22.6470  -10.8876 C   0  0  0  0  0 15  0  0  0  0  0  0
   24.5370  -23.6201  -11.5585 C   0  0  0  0  0 15  0  0  0  0  0  0
   22.7986  -22.7292  -12.4114 C   0  0  0  0  0 15  0  0  0  0  0  0
   23.6926  -21.8468  -11.0859 C   0  0  0  0  0 15  0  0  0  0  0  0
   24.0351  -21.6073  -10.3817 C   0  0  0  0  0 15  0  0  0  0  0  0
   23.9588  -22.1518  -12.2068 C   0  0  0  0  0 15  0  0  0  0  0  0
M  END
$$$$
