
     RDKit          3D

  7  0  0  0  0  0  0  0  0  0999 V2000
   -7.5946    3.8985  -30.2939 O   0  0  0  0  0 15  0  0  0  0  0  0
   -8.0000    3.8107  -29.9999 C   0  0  0  0  0 15  0  0  0  0  0  0
   -9.8789    3.1403  -30.9813 O   0  0  0  0  0 15  0  0  0  0  0  0
   -9.8293    5.1139  -30.3671 C   0  0  0  0  0 15  0  0  0  0  0  0
   -8.6735    4.1539  -31.3995 O   0  0  0  0  0 15  0  0  0  0  0  0
  -10.3620    3.9134  -31.2330 O   0  0  0  0  0 15  0  0  0  0  0  0
   -9.1025    5.8353  -31.2700 C   0  0  0  0  0 15  0  0  0  0  0  0
M  END
$$$$
