
     RDKit          3D

  6  7  0  0  0  0  0  0  0  0999 V2000
  132.5158   54.2465   32.3549 O   0  0  0  0  0  0  0  0  0  0  0  0
  134.1061   53.2943   31.8084 C   0  0  0  0  0  0  0  0  0  0  0  0
  134.5732   53.5289   32.8762 O   0  0  0  0  0  0  0  0  0  0  0  0
  133.3075   53.3634   32.9673 C   0  0  0  0  0  0  0  0  0  0  0  0
  133.9075   53.9342   32.1288 C   0  0  0  0  0  0  0  0  0  0  0  0
  134.6520   52.6842   31.9001 O   0  0  0  0  0  0  0  0  0  0  0  0
  1  2  1  0
  1  4  1  0
  2  4  1  0
  2  5  1  0
  3  4  1  0
  3  5  1  0
  5  6  1  0
M  END
$$$$
