
     RDKit          3D

 14 16  0  0  0  0  0  0  0  0999 V2000
   -7.5111    3.3348  -30.1911 C   0  0  0  0  0  0  0  0  0  0  0  0
  -10.2120    1.9127  -30.3042 O   0  0  0  0  0  0  0  0  0  0  0  0
   -9.3588    4.2585  -28.5282 C   0  0  0  0  0  0  0  0  0  0  0  0
   -7.8618    3.3451  -29.8936 O   0  0  0  0  0  0  0  0  0  0  0  0
   -9.7780    2.7674  -30.8976 C   0  0  0  0  0  0  0  0  0  0  0  0
   -9.6929    4.4844  -30.1750 O   0  0  0  0  0  0  0  0  0  0  0  0
   -8.5595    3.4610  -31.2271 C   0  0  0  0  0  0  0  0  0  0  0  0
  -10.0842    3.8213  -29.9946 O   0  0  0  0  0  0  0  0  0  0  0  0
   -7.5091    4.0969  -30.4485 C   0  0  0  0  0  0  0  0  0  0  0  0
  -10.2195    3.3264  -31.0970 O   0  0  0  0  0  0  0  0  0  0  0  0
   -6.9704    4.5685  -30.3470 P   0  0  0  0  0  0  0  0  0  0  0  0
   -8.0744    4.1226  -31.8823 O   0  0  0  0  0  0  0  0  0  0  0  0
   -8.8392    1.5212  -30.8894 O   0  0  0  0  0  0  0  0  0  0  0  0
   -9.0073    5.4041  -31.1323 O   0  0  0  0  0  0  0  0  0  0  0  0
  1  4  1  0
  9 11  1  0
  5 10  1  0
  6  8  1  0
  1  9  1  0
  4  9  1  0
  7 12  1  0
  2  5  1  0
  8 10  1  0
  1 11  1  0
  5  7  1  0
  7  9  1  0
  1  7  1  0
  6 14  1  0
  5 13  1  0
 11 12  1  0
M  END
$$$$
