
     RDKit          3D

  5  5  0  0  0  0  0  0  0  0999 V2000
   31.2721   52.2817   81.7244 O   0  0  0  0  0  0  0  0  0  0  0  0
   31.2676   51.4920   82.8626 O   0  0  0  0  0  0  0  0  0  0  0  0
   32.0805   51.0183   82.6242 O   0  0  0  0  0  0  0  0  0  0  0  0
   30.9023   51.1799   82.8419 C   0  0  0  0  0  0  0  0  0  0  0  0
   30.8831   51.1551   82.5699 C   0  0  0  0  0  0  0  0  0  0  0  0
  1  2  1  0
  1  3  1  0
  2  4  1  0
  3  4  1  0
  4  5  1  0
M  END
$$$$
