
     RDKit          3D

  6  0  0  0  0  0  0  0  0  0999 V2000
   20.8854   12.2988  -12.6765 C   0  0  0  0  0 15  0  0  0  0  0  0
   22.0897   11.4386  -13.1025 O   0  0  0  0  0 15  0  0  0  0  0  0
   23.1545   12.0341  -11.3927 O   0  0  0  0  0 15  0  0  0  0  0  0
   23.3394   10.9653  -12.9140 O   0  0  0  0  0 15  0  0  0  0  0  0
   22.5086    9.1294  -12.3436 O   0  0  0  0  0 15  0  0  0  0  0  0
   21.3415   10.9087  -12.0978 O   0  0  0  0  0 15  0  0  0  0  0  0
M  END
$$$$
