
     RDKit          3D

 35 44  0  0  0  0  0  0  0  0999 V2000
    4.6331    0.6590    1.7678 N   0  0  0  0  0  0  0  0  0  0  0  0
    4.5838   -0.4860   -0.3048 C   0  0  0  0  0  0  0  0  0  0  0  0
    4.7849    0.2877   -0.1209 N   0  0  0  0  0  0  0  0  0  0  0  0
    6.9846    0.6653    0.6359 C   0  0  0  0  0  0  0  0  0  0  0  0
    4.5860    1.8442    2.2764 C   0  0  0  0  0  0  0  0  0  0  0  0
    6.5163    0.1301    0.8475 C   0  0  0  0  0  0  0  0  0  0  0  0
    5.6340    1.4947    1.6462 N   0  0  0  0  0  0  0  0  0  0  0  0
    4.9921   -1.0906    3.7630 N   0  0  0  0  0  0  0  0  0  0  0  0
    2.9458   -0.7591    1.1137 C   0  0  0  0  0  0  0  0  0  0  0  0
    4.7185    0.0868    3.2960 N   0  0  0  0  0  0  0  0  0  0  0  0
    5.4984   -0.1484    1.9415 P   0  0  0  0  0  0  0  0  0  0  0  0
    7.1464   -0.6164    0.7811 P   0  0  0  0  0  0  0  0  0  0  0  0
    5.8368   -0.8312    1.7727 C   0  0  0  0  0  0  0  0  0  0  0  0
    6.6067   -0.8694    2.4067 O   0  0  0  0  0  0  0  0  0  0  0  0
    4.6677    1.6569    2.2468 O   0  0  0  0  0  0  0  0  0  0  0  0
    5.1434    0.1253    3.1052 C   0  0  0  0  0  0  0  0  0  0  0  0
    5.2382   -1.0587    1.3259 C   0  0  0  0  0  0  0  0  0  0  0  0
    4.6056    0.9043    1.0308 O   0  0  0  0  0  0  0  0  0  0  0  0
    5.4140    1.5395    1.3405 O   0  0  0  0  0  0  0  0  0  0  0  0
    4.7814   -1.3593    2.0286 O   0  0  0  0  0  0  0  0  0  0  0  0
    6.5735   -0.4096    1.9419 C   0  0  0  0  0  0  0  0  0  0  0  0
    6.2062    0.1517    0.2768 O   0  0  0  0  0  0  0  0  0  0  0  0
    5.3312   -3.4169    0.8134 C   0  0  0  0  0  0  0  0  0  0  0  0
    5.1879   -0.8397    2.7738 O   0  0  0  0  0  0  0  0  0  0  0  0
    5.6017    0.9267    2.0105 O   0  0  0  0  0  0  0  0  0  0  0  0
    4.3977    0.1714    2.2351 C   0  0  0  0  0  0  0  0  0  0  0  0
    5.5371   -0.0700    0.9643 O   0  0  0  0  0  0  0  0  0  0  0  0
    6.8537   -0.4828    1.7014 C   0  0  0  0  0  0  0  0  0  0  0  0
    4.7960   -0.1810    1.0951 O   0  0  0  0  0  0  0  0  0  0  0  0
    5.3118    0.9020    1.6497 C   0  0  0  0  0  0  0  0  0  0  0  0
    4.2942   -1.4102    2.1070 C   0  0  0  0  0  0  0  0  0  0  0  0
    5.0480   -0.1760    1.3377 C   0  0  0  0  0  0  0  0  0  0  0  0
    5.8465    0.3429    3.0695 O   0  0  0  0  0  0  0  0  0  0  0  0
    4.7151    0.4797    1.9736 C   0  0  0  0  0  0  0  0  0  0  0  0
    5.8170   -0.6604    2.6289 O   0  0  0  0  0  0  0  0  0  0  0  0
  5 15  1  0
  1 34  1  0
 29 32  1  0
 21 28  1  0
  7 19  1  0
 25 30  1  0
 10 16  1  0
 20 31  1  0
 26 34  1  0
 27 32  1  0
  6 22  1  0
 14 21  1  0
 24 35  1  0
  7 30  1  0
  7 25  1  0
  1 26  1  0
 19 30  1  0
  1 30  1  0
 16 33  1  0
  4  6  1  0
 11 32  1  0
 27 29  1  0
 11 13  1  0
 13 17  1  0
  2  3  1  0
 14 28  1  0
 13 21  1  0
 13 35  1  0
 17 20  1  0
 17 32  1  0
 12 28  1  0
  6 12  1  0
  4 22  1  0
 11 34  1  0
 16 24  1  0
 18 34  1  0
  6 28  1  0
 11 21  1  0
 10 26  1  0
 11 17  1  0
 16 26  1  0
 10 33  1  0
  4 12  1  0
  3 18  1  0
M  END
$$$$
