
     RDKit          3D

 17  0  0  0  0  0  0  0  0  0999 V2000
   32.0335   30.3745   -1.9963 C   0  0  0  0  0 15  0  0  0  0  0  0
   31.8381   29.6321   -2.6101 C   0  0  0  0  0 15  0  0  0  0  0  0
   31.3976   29.8249   -2.7282 O   0  0  0  0  0 15  0  0  0  0  0  0
   32.9386   29.5662   -3.4193 O   0  0  0  0  0 15  0  0  0  0  0  0
   33.1889   28.2751   -2.9625 O   0  0  0  0  0 15  0  0  0  0  0  0
   32.1589   27.1250   -2.4984 O   0  0  0  0  0 15  0  0  0  0  0  0
   34.3648   26.9157   -1.8735 O   0  0  0  0  0 15  0  0  0  0  0  0
   32.1051   29.6380   -1.8990 O   0  0  0  0  0 15  0  0  0  0  0  0
   33.3376   27.8741   -3.5305 C   0  0  0  0  0 15  0  0  0  0  0  0
   32.4446   29.9918   -1.3471 O   0  0  0  0  0 15  0  0  0  0  0  0
   31.5092   28.3226   -1.8851 O   0  0  0  0  0 15  0  0  0  0  0  0
   33.5409   28.9430   -1.5023 C   0  0  0  0  0 15  0  0  0  0  0  0
   33.5226   27.1288   -3.9247 C   0  0  0  0  0 15  0  0  0  0  0  0
   31.8679   27.4774   -1.0058 C   0  0  0  0  0 15  0  0  0  0  0  0
   31.5783   28.8914   -2.8053 C   0  0  0  0  0 15  0  0  0  0  0  0
   33.1094   27.0444   -1.3196 C   0  0  0  0  0 15  0  0  0  0  0  0
   33.4647   27.2020   -4.6611 C   0  0  0  0  0 15  0  0  0  0  0  0
M  END
$$$$
