
     RDKit          3D

 18 26  0  0  0  0  0  0  0  0999 V2000
   24.4850  -22.1125  -10.8760 N   0  0  0  0  0  0  0  0  0  0  0  0
   23.8371  -22.7895  -10.6599 C   0  0  0  0  0  0  0  0  0  0  0  0
   23.6440  -24.1736  -11.1643 N   0  0  0  0  0  0  0  0  0  0  0  0
   24.1021  -21.6905  -12.4253 C   0  0  0  0  0  0  0  0  0  0  0  0
   23.8984  -22.3283  -11.8933 C   0  0  0  0  0  0  0  0  0  0  0  0
   24.2790  -22.7421  -10.1486 C   0  0  0  0  0  0  0  0  0  0  0  0
   25.3770  -23.1525  -10.7393 O   0  0  0  0  0  0  0  0  0  0  0  0
   24.6370  -23.9591  -11.4477 N   0  0  0  0  0  0  0  0  0  0  0  0
   22.5410  -21.5251  -11.7628 C   0  0  0  0  0  0  0  0  0  0  0  0
   23.8423  -21.9667  -10.8164 C   0  0  0  0  0  0  0  0  0  0  0  0
   22.9389  -23.0657  -12.3792 C   0  0  0  0  0  0  0  0  0  0  0  0
   23.8019  -22.2509  -11.0277 C   0  0  0  0  0  0  0  0  0  0  0  0
   24.8917  -22.5451   -9.3817 O   0  0  0  0  0  0  0  0  0  0  0  0
   24.1611  -22.2527  -10.2549 C   0  0  0  0  0  0  0  0  0  0  0  0
   24.0819  -22.5016  -12.1547 O   0  0  0  0  0  0  0  0  0  0  0  0
   24.6306  -24.1883  -12.0967 P   0  0  0  0  0  0  0  0  0  0  0  0
   24.2390  -22.6123  -13.4047 O   0  0  0  0  0  0  0  0  0  0  0  0
   24.0559  -22.2973  -11.0972 O   0  0  0  0  0  0  0  0  0  0  0  0
 12 18  1  0
 10 12  1  0
  5 15  1  0
 10 18  1  0
  6 14  1  0
  2 12  1  0
  1 10  1  0
  2  6  1  0
  8 16  1  0
 10 14  1  0
  1 12  1  0
  1 14  1  0
  2 14  1  0
  4  5  1  0
  4 15  1  0
  6 13  1  0
  3  8  1  0
  7  8  1  0
  5 11  1  0
  6  7  1  0
  2  5  1  0
  4 17  1  0
  3 16  1  0
  4  9  1  0
  9 11  1  0
 11 16  1  0
M  END
$$$$
