
     RDKit          3D

 17 19  0  0  0  0  0  0  0  0999 V2000
   12.1801   56.0046   81.3518 C   0  0  0  0  0  0  0  0  0  0  0  0
   12.5673   58.0404   81.3134 C   0  0  0  0  0  0  0  0  0  0  0  0
   13.3321   56.9277   80.7921 C   0  0  0  0  0  0  0  0  0  0  0  0
   12.4444   59.5131   79.6719 C   0  0  0  0  0  0  0  0  0  0  0  0
   11.5086   57.4644   81.6867 C   0  0  0  0  0  0  0  0  0  0  0  0
   11.4126   59.1964   79.4696 C   0  0  0  0  0  0  0  0  0  0  0  0
   12.7895   57.8854   79.7592 C   0  0  0  0  0  0  0  0  0  0  0  0
   11.8386   57.5615   79.7489 C   0  0  0  0  0  0  0  0  0  0  0  0
   14.7196   58.6818   80.7828 O   0  0  0  0  0  0  0  0  0  0  0  0
   13.5915   58.0853   81.1795 O   0  0  0  0  0  0  0  0  0  0  0  0
   13.9196   56.0501   80.6496 O   0  0  0  0  0  0  0  0  0  0  0  0
   12.6023   57.7709   80.5533 O   0  0  0  0  0  0  0  0  0  0  0  0
   14.7157   57.0611   80.3791 O   0  0  0  0  0  0  0  0  0  0  0  0
   12.0534   57.6510   81.2564 O   0  0  0  0  0  0  0  0  0  0  0  0
   13.5198   58.3658   81.3003 C   0  0  0  0  0  0  0  0  0  0  0  0
    9.9967   58.4087   80.1879 O   0  0  0  0  0  0  0  0  0  0  0  0
   12.9168   58.2628   81.1065 O   0  0  0  0  0  0  0  0  0  0  0  0
 10 15  1  0
  2 17  1  0
 15 17  1  0
  2 14  1  0
  5 14  1  0
  2 12  1  0
  7 12  1  0
  7  8  1  0
  2 15  1  0
  3 11  1  0
  4  6  1  0
  3 10  1  0
 11 13  1  0
  9 15  1  0
  3 13  1  0
  3  7  1  0
  1  5  1  0
  4  7  1  0
  6  8  1  0
M  END
$$$$
