
     RDKit          3D

 28 36  0  0  0  0  0  0  0  0999 V2000
  -13.3359   -3.2561  -23.6391 C   0  0  0  0  0  0  0  0  0  0  0  0
  -14.7072   -4.1623  -23.7545 O   0  0  0  0  0  0  0  0  0  0  0  0
  -15.3455   -3.6916  -24.7246 C   0  0  0  0  0  0  0  0  0  0  0  0
  -15.4339   -2.8900  -23.8435 O   0  0  0  0  0  0  0  0  0  0  0  0
  -15.8324   -2.0620  -23.8996 C   0  0  0  0  0  0  0  0  0  0  0  0
  -14.3286   -2.2911  -22.8359 O   0  0  0  0  0  0  0  0  0  0  0  0
  -13.7042   -1.8664  -23.2373 C   0  0  0  0  0  0  0  0  0  0  0  0
  -14.8561   -0.6423  -22.2955 N   0  0  0  0  0  0  0  0  0  0  0  0
  -15.1658   -2.8667  -22.7300 C   0  0  0  0  0  0  0  0  0  0  0  0
  -14.2873   -0.3209  -25.3434 N   0  0  0  0  0  0  0  0  0  0  0  0
  -14.2866   -3.3214  -21.7520 C   0  0  0  0  0  0  0  0  0  0  0  0
  -15.1454   -0.4884  -23.7902 C   0  0  0  0  0  0  0  0  0  0  0  0
  -14.7162   -2.3680  -25.2887 O   0  0  0  0  0  0  0  0  0  0  0  0
  -14.3764   -2.7578  -21.0468 N   0  0  0  0  0  0  0  0  0  0  0  0
  -14.1341   -2.6161  -22.9961 C   0  0  0  0  0  0  0  0  0  0  0  0
  -13.5222   -1.4417  -23.6726 N   0  0  0  0  0  0  0  0  0  0  0  0
  -15.2739   -2.5060  -25.0446 N   0  0  0  0  0  0  0  0  0  0  0  0
  -14.6100   -2.1599  -22.4827 C   0  0  0  0  0  0  0  0  0  0  0  0
  -15.0285   -0.7243  -24.0756 C   0  0  0  0  0  0  0  0  0  0  0  0
  -14.2938   -0.1561  -22.8217 O   0  0  0  0  0  0  0  0  0  0  0  0
  -15.7670   -1.3121  -22.5260 P   0  0  0  0  0  0  0  0  0  0  0  0
  -14.7675   -2.0317  -23.6042 O   0  0  0  0  0  0  0  0  0  0  0  0
  -17.2413   -1.4392  -20.9213 O   0  0  0  0  0  0  0  0  0  0  0  0
  -15.8103   -1.8485  -23.5485 O   0  0  0  0  0  0  0  0  0  0  0  0
  -15.6050   -2.2724  -22.3019 P   0  0  0  0  0  0  0  0  0  0  0  0
  -15.0545   -2.1257  -21.5461 O   0  0  0  0  0  0  0  0  0  0  0  0
  -15.4954   -2.1730  -23.1804 O   0  0  0  0  0  0  0  0  0  0  0  0
  -15.8883   -1.6615  -24.8509 O   0  0  0  0  0  0  0  0  0  0  0  0
 12 19  1  0
  6 15  1  0
  5 24  1  0
  6 18  1  0
 24 27  1  0
 13 17  1  0
  7 16  1  0
  5 27  1  0
 15 18  1  0
  9 25  1  0
  7 15  1  0
 11 14  1  0
  8 20  1  0
  4  5  1  0
  9 18  1  0
 25 26  1  0
 21 25  1  0
 18 25  1  0
  5 28  1  0
 14 26  1  0
 15 22  1  0
 17 28  1  0
  4 22  1  0
  8 21  1  0
  3 17  1  0
  2  3  1  0
 12 20  1  0
  9 11  1  0
  1  7  1  0
 10 19  1  0
  8 12  1  0
  3 13  1  0
 12 21  1  0
  9 21  1  0
 11 25  1  0
 19 21  1  0
M  END
$$$$
