
     RDKit          3D

  6  6  0  0  0  0  0  0  0  0999 V2000
   15.8024  -60.4609    1.6547 O   0  0  0  0  0  0  0  0  0  0  0  0
   13.6219  -60.1477    0.5825 C   0  0  0  0  0  0  0  0  0  0  0  0
   15.1381  -59.7594    0.5704 O   0  0  0  0  0  0  0  0  0  0  0  0
   15.0897  -60.2812    0.6229 C   0  0  0  0  0  0  0  0  0  0  0  0
   15.6659  -58.3145    1.0820 O   0  0  0  0  0  0  0  0  0  0  0  0
   14.3874  -60.8745    0.6264 C   0  0  0  0  0  0  0  0  0  0  0  0
  3  4  1  0
  4  6  1  0
  2  6  1  0
  1  4  1  0
  3  6  1  0
  2  4  1  0
M  END
$$$$
