
     RDKit          3D

 10  0  0  0  0  0  0  0  0  0999 V2000
   19.3762   54.8238   21.9944 O   0  0  0  0  0 15  0  0  0  0  0  0
   19.5235   53.0528   22.4983 O   0  0  0  0  0 15  0  0  0  0  0  0
   19.6541   54.0001   21.3215 C   0  0  0  0  0 15  0  0  0  0  0  0
   20.5114   52.2781   20.6175 C   0  0  0  0  0 15  0  0  0  0  0  0
   20.0745   53.7784   22.4867 O   0  0  0  0  0 15  0  0  0  0  0  0
   20.7404   52.6148   20.7844 C   0  0  0  0  0 15  0  0  0  0  0  0
   19.0316   52.9369   22.7434 O   0  0  0  0  0 15  0  0  0  0  0  0
   18.8424   51.8116   21.7516 C   0  0  0  0  0 15  0  0  0  0  0  0
   20.7673   53.4531   21.7576 C   0  0  0  0  0 15  0  0  0  0  0  0
   19.6645   52.1079   20.2156 O   0  0  0  0  0 15  0  0  0  0  0  0
M  END
$$$$
