
     RDKit          3D

 21 31  0  0  0  0  0  0  0  0999 V2000
  -19.1477   35.6212    6.0272 C   0  0  0  0  0  0  0  0  0  0  0  0
  -18.8948   33.7488    6.5849 C   0  0  0  0  0  0  0  0  0  0  0  0
  -19.3254   34.4900    6.0106 O   0  0  0  0  0  0  0  0  0  0  0  0
  -17.8416   34.8980    4.8098 O   0  0  0  0  0  0  0  0  0  0  0  0
  -17.5360   33.8837    4.9302 C   0  0  0  0  0  0  0  0  0  0  0  0
  -17.4480   35.6039    5.3535 C   0  0  0  0  0  0  0  0  0  0  0  0
  -19.3739   35.7065    3.5659 C   0  0  0  0  0  0  0  0  0  0  0  0
  -18.2502   34.5977    3.4514 C   0  0  0  0  0  0  0  0  0  0  0  0
  -17.7093   35.7486    6.1449 C   0  0  0  0  0  0  0  0  0  0  0  0
  -19.1561   36.7463    4.0300 C   0  0  0  0  0  0  0  0  0  0  0  0
  -17.9812   36.5790    5.9068 O   0  0  0  0  0  0  0  0  0  0  0  0
  -18.0546   33.7591    5.4126 C   0  0  0  0  0  0  0  0  0  0  0  0
  -20.5641   36.3560    4.8508 O   0  0  0  0  0  0  0  0  0  0  0  0
  -18.4948   35.1618    3.3141 C   0  0  0  0  0  0  0  0  0  0  0  0
  -18.1000   34.8195    3.1088 C   0  0  0  0  0  0  0  0  0  0  0  0
  -18.9386   36.2263    4.9756 C   0  0  0  0  0  0  0  0  0  0  0  0
  -18.1367   36.1687    5.7749 C   0  0  0  0  0  0  0  0  0  0  0  0
  -18.7285   37.1551    5.0512 C   0  0  0  0  0  0  0  0  0  0  0  0
  -20.1579   35.6932    5.1293 C   0  0  0  0  0  0  0  0  0  0  0  0
  -17.7060   35.3914    5.5789 C   0  0  0  0  0  0  0  0  0  0  0  0
  -20.6465   36.2520    4.3928 C   0  0  0  0  0  0  0  0  0  0  0  0
  6 20  1  0
  8 15  1  0
 11 17  1  0
 13 21  1  0
 14 15  1  0
  8 14  1  0
  9 20  1  0
  9 17  1  0
  5 12  1  0
 13 19  1  0
  6  9  1  0
  9 11  1  0
 17 20  1  0
  4 20  1  0
 16 18  1  0
  4  6  1  0
  6 17  1  0
  2  3  1  0
 19 21  1  0
  7 14  1  0
 10 16  1  0
  1  3  1  0
  7 10  1  0
 10 18  1  0
  1 16  1  0
 16 19  1  0
  1 19  1  0
  2 12  1  0
  7  8  1  0
 10 21  1  0
  7 21  1  0
M  END
$$$$
