
     RDKit          3D

  7  0  0  0  0  0  0  0  0  0999 V2000
   12.6668   15.4027   15.3372 O   0  0  0  0  0 15  0  0  0  0  0  0
   11.1302   16.6674   15.9751 C   0  0  0  0  0 15  0  0  0  0  0  0
   11.8086   17.4184   13.9918 O   0  0  0  0  0 15  0  0  0  0  0  0
   12.5645   17.0191   13.4161 O   0  0  0  0  0 15  0  0  0  0  0  0
   11.6010   15.5055   14.8449 O   0  0  0  0  0 15  0  0  0  0  0  0
   11.0687   16.4299   15.3353 C   0  0  0  0  0 15  0  0  0  0  0  0
   12.1110   16.6729   14.8803 C   0  0  0  0  0 15  0  0  0  0  0  0
M  END
$$$$
