
     RDKit          3D

  9  0  0  0  0  0  0  0  0  0999 V2000
   12.4773   58.6890   81.1682 O   0  0  0  0  0 15  0  0  0  0  0  0
   13.2454   57.5988   80.5603 O   0  0  0  0  0 15  0  0  0  0  0  0
   12.3548   59.7328   79.6156 C   0  0  0  0  0 15  0  0  0  0  0  0
   11.4074   58.2185   81.4752 O   0  0  0  0  0 15  0  0  0  0  0  0
   11.2977   59.8643   79.2835 C   0  0  0  0  0 15  0  0  0  0  0  0
   12.6749   58.6831   79.5141 O   0  0  0  0  0 15  0  0  0  0  0  0
   11.7452   58.3875   79.4948 C   0  0  0  0  0 15  0  0  0  0  0  0
   13.4568   58.6380   81.0849 O   0  0  0  0  0 15  0  0  0  0  0  0
   11.9178   58.2970   81.0961 C   0  0  0  0  0 15  0  0  0  0  0  0
M  END
$$$$
