
     RDKit          3D

  6  0  0  0  0  0  0  0  0  0999 V2000
   90.6762   68.8312   -5.1198 O   0  0  0  0  0 15  0  0  0  0  0  0
   91.7471   68.8207   -4.0520 O   0  0  0  0  0 15  0  0  0  0  0  0
   92.0438   71.6280   -3.5681 O   0  0  0  0  0 15  0  0  0  0  0  0
   92.8212   71.3641   -4.9932 C   0  0  0  0  0 15  0  0  0  0  0  0
   92.9069   69.8585   -4.1032 C   0  0  0  0  0 15  0  0  0  0  0  0
   90.1523   70.6617   -6.5142 C   0  0  0  0  0 15  0  0  0  0  0  0
M  END
$$$$
