
     RDKit          3D

  3  3  0  0  0  0  0  0  0  0999 V2000
   19.0731    2.1613    3.6353 O   0  0  0  0  0  0  0  0  0  0  0  0
   20.6603    2.5274    3.0574 O   0  0  0  0  0  0  0  0  0  0  0  0
   19.6250    3.0295    4.4904 O   0  0  0  0  0  0  0  0  0  0  0  0
  1  2  1  0
  1  3  1  0
  2  3  1  0
M  END
$$$$
