
     RDKit          3D

  8  0  0  0  0  0  0  0  0  0999 V2000
   94.1323   48.5088   72.7564 C   0  0  0  0  0 15  0  0  0  0  0  0
   94.5026   47.8995   73.7388 O   0  0  0  0  0 15  0  0  0  0  0  0
   94.2594   49.3816   73.2537 C   0  0  0  0  0 15  0  0  0  0  0  0
   95.5009   48.4938   72.9529 C   0  0  0  0  0 15  0  0  0  0  0  0
   94.4119   49.7540   72.7341 O   0  0  0  0  0 15  0  0  0  0  0  0
   94.0046   47.5478   72.1527 C   0  0  0  0  0 15  0  0  0  0  0  0
   94.7298   48.9609   72.5080 O   0  0  0  0  0 15  0  0  0  0  0  0
   94.9006   47.4275   74.2720 C   0  0  0  0  0 15  0  0  0  0  0  0
M  END
$$$$
