
     RDKit          3D

 31 44  0  0  0  0  0  0  0  0999 V2000
   -3.0681   12.6018   17.4727 C   0  0  0  0  0  0  0  0  0  0  0  0
   -3.0857   11.6503   17.2822 O   0  0  0  0  0  0  0  0  0  0  0  0
   -3.9833   11.6686   17.0471 C   0  0  0  0  0  0  0  0  0  0  0  0
   -3.8745   10.9256   17.2392 O   0  0  0  0  0  0  0  0  0  0  0  0
   -3.5863   13.5989   16.8441 C   0  0  0  0  0  0  0  0  0  0  0  0
   -5.7179   11.1919   15.7860 O   0  0  0  0  0  0  0  0  0  0  0  0
   -5.1644   10.1690   17.1699 C   0  0  0  0  0  0  0  0  0  0  0  0
   -4.9371   11.9961   16.6729 N   0  0  0  0  0  0  0  0  0  0  0  0
   -4.3680   13.0102   16.5503 C   0  0  0  0  0  0  0  0  0  0  0  0
   -6.0343   11.0016   17.5573 N   0  0  0  0  0  0  0  0  0  0  0  0
   -4.6755    9.8862   17.6760 C   0  0  0  0  0  0  0  0  0  0  0  0
   -6.3338   10.2498   17.3814 C   0  0  0  0  0  0  0  0  0  0  0  0
   -4.0677    9.6826   16.2201 N   0  0  0  0  0  0  0  0  0  0  0  0
   -2.6858   11.6002   16.9741 N   0  0  0  0  0  0  0  0  0  0  0  0
   -3.8156    9.9289   16.5559 C   0  0  0  0  0  0  0  0  0  0  0  0
   -4.2030   10.9180   15.1900 N   0  0  0  0  0  0  0  0  0  0  0  0
   -3.8159   11.9213   17.4029 C   0  0  0  0  0  0  0  0  0  0  0  0
   -5.8302   11.7635   16.2826 C   0  0  0  0  0  0  0  0  0  0  0  0
   -4.7922   11.4221   17.2113 O   0  0  0  0  0  0  0  0  0  0  0  0
   -3.9153   12.4479   16.1800 P   0  0  0  0  0  0  0  0  0  0  0  0
   -5.3571   11.2787   17.3706 O   0  0  0  0  0  0  0  0  0  0  0  0
   -5.3797   11.5116   17.8480 O   0  0  0  0  0  0  0  0  0  0  0  0
   -3.4131   10.1084   16.7686 O   0  0  0  0  0  0  0  0  0  0  0  0
   -5.2535   10.9851   18.4877 P   0  0  0  0  0  0  0  0  0  0  0  0
   -4.6940   11.5888   15.8643 O   0  0  0  0  0  0  0  0  0  0  0  0
   -3.8345   11.6744   18.0117 O   0  0  0  0  0  0  0  0  0  0  0  0
   -2.5871   10.3503   17.5718 C   0  0  0  0  0  0  0  0  0  0  0  0
   -4.3524   11.5377   17.8226 P   0  0  0  0  0  0  0  0  0  0  0  0
   -3.1497   11.1805   18.3202 O   0  0  0  0  0  0  0  0  0  0  0  0
   -6.3147   10.6264   16.7804 O   0  0  0  0  0  0  0  0  0  0  0  0
   -5.4014   11.9781   16.7436 O   0  0  0  0  0  0  0  0  0  0  0  0
  3 17  1  0
  8 31  1  0
 13 15  1  0
 15 23  1  0
  2 14  1  0
 21 22  1  0
 26 28  1  0
 19 21  1  0
 17 26  1  0
 18 31  1  0
 12 30  1  0
  7 11  1  0
 19 28  1  0
  6 18  1  0
  3  4  1  0
 17 28  1  0
  2 17  1  0
  9 20  1  0
 10 12  1  0
 22 24  1  0
  3 28  1  0
 10 30  1  0
  8 25  1  0
 13 23  1  0
  4 28  1  0
  8 18  1  0
  5  9  1  0
 16 25  1  0
  3 20  1  0
  1 14  1  0
  7 12  1  0
 10 24  1  0
 27 29  1  0
  1  5  1  0
  5 20  1  0
 14 27  1  0
 11 15  1  0
 11 24  1  0
  7 15  1  0
  7 13  1  0
  1 20  1  0
  1  9  1  0
 12 24  1  0
 16 20  1  0
M  END
$$$$
