
     RDKit          3D

 26 42  0  0  0  0  0  0  0  0999 V2000
   13.1004   14.2189   34.9775 C   0  0  0  0  0  0  0  0  0  0  0  0
   12.1116   14.6351   34.2427 C   0  0  0  0  0  0  0  0  0  0  0  0
   13.0368   13.4033   34.6627 N   0  0  0  0  0  0  0  0  0  0  0  0
   11.6577   13.9782   35.5806 C   0  0  0  0  0  0  0  0  0  0  0  0
   11.0257   15.2533   34.3891 C   0  0  0  0  0  0  0  0  0  0  0  0
   11.8679   15.2879   34.6889 C   0  0  0  0  0  0  0  0  0  0  0  0
   11.9105   15.7727   36.3307 N   0  0  0  0  0  0  0  0  0  0  0  0
   10.7654   15.0406   36.8703 C   0  0  0  0  0  0  0  0  0  0  0  0
   12.6906   16.1414   34.9981 C   0  0  0  0  0  0  0  0  0  0  0  0
   12.4196   13.2757   35.8370 C   0  0  0  0  0  0  0  0  0  0  0  0
   11.2484   15.6166   35.8424 C   0  0  0  0  0  0  0  0  0  0  0  0
   12.1535   13.1550   35.9024 C   0  0  0  0  0  0  0  0  0  0  0  0
   13.7375   15.1575   35.2450 C   0  0  0  0  0  0  0  0  0  0  0  0
   11.6762   14.6633   34.0329 N   0  0  0  0  0  0  0  0  0  0  0  0
   12.4745   15.5098   36.0171 O   0  0  0  0  0  0  0  0  0  0  0  0
   10.2647   14.9012   35.9877 C   0  0  0  0  0  0  0  0  0  0  0  0
   13.0583   13.3561   34.9226 C   0  0  0  0  0  0  0  0  0  0  0  0
   12.5105   15.3614   35.7460 C   0  0  0  0  0  0  0  0  0  0  0  0
   10.8916   13.8946   35.6164 C   0  0  0  0  0  0  0  0  0  0  0  0
   12.4017   16.7112   33.2113 C   0  0  0  0  0  0  0  0  0  0  0  0
   12.0673   13.3300   35.7624 C   0  0  0  0  0  0  0  0  0  0  0  0
   12.8947   15.2009   34.0105 N   0  0  0  0  0  0  0  0  0  0  0  0
   12.3664   15.6693   34.4847 C   0  0  0  0  0  0  0  0  0  0  0  0
   12.7417   13.0260   34.5645 C   0  0  0  0  0  0  0  0  0  0  0  0
   12.3569   14.4924   32.6864 C   0  0  0  0  0  0  0  0  0  0  0  0
   11.9777   14.5559   34.6650 C   0  0  0  0  0  0  0  0  0  0  0  0
 12 21  1  0
  3 17  1  0
 10 12  1  0
 15 18  1  0
 10 21  1  0
  2 26  1  0
  2 14  1  0
  3 24  1  0
 17 24  1  0
  6 23  1  0
  7 15  1  0
 14 26  1  0
  6 26  1  0
  9 23  1  0
  4 19  1  0
  4 21  1  0
  2  6  1  0
  7 11  1  0
 22 23  1  0
  1 17  1  0
  1  3  1  0
  5  6  1  0
  7 18  1  0
  5 14  1  0
  2 22  1  0
  4 12  1  0
  8 16  1  0
  4 10  1  0
  9 18  1  0
 10 17  1  0
  1 13  1  0
 23 26  1  0
 11 16  1  0
 16 19  1  0
  8 11  1  0
 11 18  1  0
  1 24  1  0
 19 21  1  0
  9 22  1  0
  9 13  1  0
 12 24  1  0
  8 19  1  0
M  END
$$$$
