
     RDKit          3D

  3  3  0  0  0  0  0  0  0  0999 V2000
   31.9733   27.7328   34.6885 O   0  0  0  0  0  0  0  0  0  0  0  0
   31.0360   29.4488   35.5665 O   0  0  0  0  0  0  0  0  0  0  0  0
   31.5245   28.8602   35.6792 O   0  0  0  0  0  0  0  0  0  0  0  0
  1  2  1  0
  1  3  1  0
  2  3  1  0
M  END
$$$$
