
     RDKit          3D

 15  0  0  0  0  0  0  0  0  0999 V2000
    1.9670    2.3561   43.9005 C   0  0  0  0  0 15  0  0  0  0  0  0
    3.5909    1.7435   42.0834 C   0  0  0  0  0 15  0  0  0  0  0  0
    3.3817    1.6959   43.1551 O   0  0  0  0  0 15  0  0  0  0  0  0
    3.7454    4.4373   43.3347 O   0  0  0  0  0 15  0  0  0  0  0  0
    2.8236    0.6047   43.5641 O   0  0  0  0  0 15  0  0  0  0  0  0
    3.1128    1.9581   43.9513 C   0  0  0  0  0 15  0  0  0  0  0  0
    3.5752    1.7861   42.7374 O   0  0  0  0  0 15  0  0  0  0  0  0
    2.9165    2.1930   42.6793 C   0  0  0  0  0 15  0  0  0  0  0  0
    3.5652    1.6910   44.2581 O   0  0  0  0  0 15  0  0  0  0  0  0
    2.4085    1.1544   42.6655 C   0  0  0  0  0 15  0  0  0  0  0  0
    3.1051    1.5005   41.8741 C   0  0  0  0  0 15  0  0  0  0  0  0
    3.1587    1.6598   42.0753 C   0  0  0  0  0 15  0  0  0  0  0  0
    3.7449    1.6337   43.2701 O   0  0  0  0  0 15  0  0  0  0  0  0
    3.9510    4.0646   42.7460 C   0  0  0  0  0 15  0  0  0  0  0  0
    4.1609    0.5240   42.9409 C   0  0  0  0  0 15  0  0  0  0  0  0
M  END
$$$$
