
     RDKit          3D

  5  0  0  0  0  0  0  0  0  0999 V2000
   25.1617    5.5745   -7.8946 O   0  0  0  0  0 15  0  0  0  0  0  0
   25.1859    5.0387   -7.6874 C   0  0  0  0  0 15  0  0  0  0  0  0
   24.5131    4.7870   -6.7360 O   0  0  0  0  0 15  0  0  0  0  0  0
   25.6104    5.9676   -7.7939 C   0  0  0  0  0 15  0  0  0  0  0  0
   23.4912    3.8845   -6.9288 O   0  0  0  0  0 15  0  0  0  0  0  0
M  END
$$$$
