
     RDKit          3D

 15 22  0  0  0  0  0  0  0  0999 V2000
    1.8227   -3.9047   16.9023 P   0  0  0  0  0  0  0  0  0  0  0  0
    1.9523   -4.4809   17.5906 N   0  0  0  0  0  0  0  0  0  0  0  0
    2.2856   -3.1240   19.1406 O   0  0  0  0  0  0  0  0  0  0  0  0
    2.3028   -3.0478   15.6864 O   0  0  0  0  0  0  0  0  0  0  0  0
    1.1637   -4.4071   17.0108 C   0  0  0  0  0  0  0  0  0  0  0  0
    1.3146   -3.5687   16.7079 C   0  0  0  0  0  0  0  0  0  0  0  0
    1.5193   -4.7719   17.6023 C   0  0  0  0  0  0  0  0  0  0  0  0
    1.1552   -2.7240   18.0119 C   0  0  0  0  0  0  0  0  0  0  0  0
    2.3824   -3.4890   17.1561 C   0  0  0  0  0  0  0  0  0  0  0  0
    1.1330   -1.3722   17.2679 O   0  0  0  0  0  0  0  0  0  0  0  0
    0.6398   -2.6429   18.8301 C   0  0  0  0  0  0  0  0  0  0  0  0
    1.8942   -2.9147   16.1254 C   0  0  0  0  0  0  0  0  0  0  0  0
    3.9705   -4.1897   19.9040 C   0  0  0  0  0  0  0  0  0  0  0  0
    1.4562   -2.7883   17.8744 C   0  0  0  0  0  0  0  0  0  0  0  0
    1.9460   -2.4629   17.4774 C   0  0  0  0  0  0  0  0  0  0  0  0
  8 14  1  0
  2  7  1  0
  4 12  1  0
  1  6  1  0
 14 15  1  0
  1  9  1  0
  5  7  1  0
  1  5  1  0
  5  6  1  0
  1  2  1  0
  8 11  1  0
  2  5  1  0
  8 15  1  0
  6 12  1  0
  1  7  1  0
  9 15  1  0
  6  9  1  0
 11 14  1  0
  9 12  1  0
 10 15  1  0
  8 10  1  0
  3 14  1  0
M  END
$$$$
