
     RDKit          3D

  6  0  0  0  0  0  0  0  0  0999 V2000
   47.7979   -9.9355   23.8891 C   0  0  0  0  0 15  0  0  0  0  0  0
   48.0230   -9.9768   24.2170 C   0  0  0  0  0 15  0  0  0  0  0  0
   47.6968   -9.0662   25.0538 O   0  0  0  0  0 15  0  0  0  0  0  0
   47.2782   -9.6195   25.4299 C   0  0  0  0  0 15  0  0  0  0  0  0
   46.2838   -9.2876   25.8677 O   0  0  0  0  0 15  0  0  0  0  0  0
   48.6489  -10.7694   23.8679 O   0  0  0  0  0 15  0  0  0  0  0  0
M  END
$$$$
