
     RDKit          3D

 14  0  0  0  0  0  0  0  0  0999 V2000
    3.8432  -39.4354    4.1012 O   0  0  0  0  0 15  0  0  0  0  0  0
    4.8457  -38.1036    3.1390 C   0  0  0  0  0 15  0  0  0  0  0  0
    5.6603  -37.7665    1.4802 O   0  0  0  0  0 15  0  0  0  0  0  0
    2.2749  -39.5987    2.6367 C   0  0  0  0  0 15  0  0  0  0  0  0
    5.2709  -40.1898    2.5341 C   0  0  0  0  0 15  0  0  0  0  0  0
    4.8060  -38.2941    2.1517 O   0  0  0  0  0 15  0  0  0  0  0  0
    4.5967  -38.5361    3.0809 C   0  0  0  0  0 15  0  0  0  0  0  0
    4.9901  -40.2166    1.6946 N   0  0  0  0  0 15  0  0  0  0  0  0
    5.4830  -40.1273    2.5366 C   0  0  0  0  0 15  0  0  0  0  0  0
    1.7851  -39.8448    2.7667 O   0  0  0  0  0 15  0  0  0  0  0  0
    4.0109  -40.6489    2.6240 C   0  0  0  0  0 15  0  0  0  0  0  0
    5.5928  -38.3065    2.5768 C   0  0  0  0  0 15  0  0  0  0  0  0
    2.4753  -41.5215    2.5855 C   0  0  0  0  0 15  0  0  0  0  0  0
    6.1432  -39.8425    1.5500 C   0  0  0  0  0 15  0  0  0  0  0  0
M  END
$$$$
