
     RDKit          3D

 16 26  0  0  0  0  0  0  0  0999 V2000
   11.5630   -3.5272  -21.7398 C   0  0  0  0  0  0  0  0  0  0  0  0
   10.2064   -1.0950  -22.2020 C   0  0  0  0  0  0  0  0  0  0  0  0
   12.5367   -0.8330  -21.7109 C   0  0  0  0  0  0  0  0  0  0  0  0
   11.2626   -1.0626  -22.7973 C   0  0  0  0  0  0  0  0  0  0  0  0
   12.3491   -2.6087  -23.4672 C   0  0  0  0  0  0  0  0  0  0  0  0
   11.6098   -1.4117  -21.8948 C   0  0  0  0  0  0  0  0  0  0  0  0
   13.1024   -1.2510  -24.0692 C   0  0  0  0  0  0  0  0  0  0  0  0
   10.5422   -2.5761  -22.2518 C   0  0  0  0  0  0  0  0  0  0  0  0
   12.6371   -0.8917  -23.5316 C   0  0  0  0  0  0  0  0  0  0  0  0
   11.3394   -2.6196  -21.9829 C   0  0  0  0  0  0  0  0  0  0  0  0
   11.6532   -0.8957  -23.0458 S   0  0  0  0  0  0  0  0  0  0  0  0
   11.7024   -1.9276  -24.2226 O   0  0  0  0  0  0  0  0  0  0  0  0
   10.8738   -1.7919  -24.3307 O   0  0  0  0  0  0  0  0  0  0  0  0
   12.0126   -2.2944  -23.3759 N   0  0  0  0  0  0  0  0  0  0  0  0
   12.1325   -2.2179  -22.8785 C   0  0  0  0  0  0  0  0  0  0  0  0
   11.2614   -1.5629  -22.5670 C   0  0  0  0  0  0  0  0  0  0  0  0
  5 14  1  0
  4 11  1  0
 14 15  1  0
  4 16  1  0
  5 15  1  0
  6 16  1  0
  7  9  1  0
  8 10  1  0
 12 13  1  0
 11 16  1  0
  1 10  1  0
 12 14  1  0
  4  6  1  0
  9 11  1  0
  3  6  1  0
 15 16  1  0
  2  4  1  0
  6 10  1  0
 10 15  1  0
  1  8  1  0
  2  8  1  0
  3 11  1  0
  5  7  1  0
  2 11  1  0
  5  9  1  0
 11 13  1  0
M  END
$$$$
