
     RDKit          3D

 31 41  0  0  0  0  0  0  0  0999 V2000
  -13.7354    3.5546  -22.8492 C   0  0  0  0  0  0  0  0  0  0  0  0
  -12.9469    4.3354  -23.3624 O   0  0  0  0  0  0  0  0  0  0  0  0
  -13.4006    3.3298  -21.3177 C   0  0  0  0  0  0  0  0  0  0  0  0
  -13.6538    2.8688  -20.8430 O   0  0  0  0  0  0  0  0  0  0  0  0
  -13.9018    2.7833  -21.4629 C   0  0  0  0  0  0  0  0  0  0  0  0
  -13.4663    4.1372  -21.4464 O   0  0  0  0  0  0  0  0  0  0  0  0
  -14.9741    4.0996  -20.4171 C   0  0  0  0  0  0  0  0  0  0  0  0
  -13.7256    3.1892  -20.1341 N   0  0  0  0  0  0  0  0  0  0  0  0
  -13.7559    1.9724  -20.8676 C   0  0  0  0  0  0  0  0  0  0  0  0
  -13.9274    1.9004  -21.7034 N   0  0  0  0  0  0  0  0  0  0  0  0
  -14.9904    3.3922  -22.3257 C   0  0  0  0  0  0  0  0  0  0  0  0
  -14.7436    2.4937  -20.1348 C   0  0  0  0  0  0  0  0  0  0  0  0
  -11.9252    4.5726  -22.4592 N   0  0  0  0  0  0  0  0  0  0  0  0
  -13.2635    0.3563  -21.1673 N   0  0  0  0  0  0  0  0  0  0  0  0
  -12.8346    2.3571  -20.1521 C   0  0  0  0  0  0  0  0  0  0  0  0
  -14.3479    2.2447  -23.2510 N   0  0  0  0  0  0  0  0  0  0  0  0
  -14.5218    4.8799  -21.5686 C   0  0  0  0  0  0  0  0  0  0  0  0
  -13.0084    3.2240  -21.9885 C   0  0  0  0  0  0  0  0  0  0  0  0
  -12.0182    3.5995  -21.1602 O   0  0  0  0  0  0  0  0  0  0  0  0
  -13.2319    2.7451  -22.0718 P   0  0  0  0  0  0  0  0  0  0  0  0
  -12.4623    3.3438  -19.9576 O   0  0  0  0  0  0  0  0  0  0  0  0
  -12.4411    4.8178  -21.1306 O   0  0  0  0  0  0  0  0  0  0  0  0
  -12.6375    1.6664  -20.7753 O   0  0  0  0  0  0  0  0  0  0  0  0
  -13.5452    2.5358  -22.6514 P   0  0  0  0  0  0  0  0  0  0  0  0
  -13.3686    3.5741  -22.5859 O   0  0  0  0  0  0  0  0  0  0  0  0
  -13.4080    6.1539  -20.9210 O   0  0  0  0  0  0  0  0  0  0  0  0
  -13.6001    2.3032  -21.6127 N   0  0  0  0  0  0  0  0  0  0  0  0
  -13.2529    2.3047  -19.3705 P   0  0  0  0  0  0  0  0  0  0  0  0
  -12.3228    3.5615  -23.5709 O   0  0  0  0  0  0  0  0  0  0  0  0
  -13.5804    3.1783  -21.3942 O   0  0  0  0  0  0  0  0  0  0  0  0
  -13.4830    4.1615  -20.8039 O   0  0  0  0  0  0  0  0  0  0  0  0
  3 30  1  0
  1 25  1  0
  5 30  1  0
 10 27  1  0
 18 20  1  0
  5 27  1  0
  6 31  1  0
  4  5  1  0
 20 24  1  0
  3  4  1  0
 20 27  1  0
  3  5  1  0
 18 25  1  0
  3 18  1  0
  9 10  1  0
 15 28  1  0
 15 23  1  0
  2 29  1  0
 16 24  1  0
  1 24  1  0
 15 21  1  0
 18 24  1  0
 10 20  1  0
  9 23  1  0
  8 31  1  0
  8 15  1  0
  1  2  1  0
  1 20  1  0
  8 12  1  0
  6 22  1  0
 19 22  1  0
 19 21  1  0
  9 12  1  0
  7 17  1  0
 13 29  1  0
 11 16  1  0
  9 28  1  0
  7 12  1  0
 12 28  1  0
 11 24  1  0
 11 17  1  0
M  END
$$$$
