
     RDKit          3D

 27 37  0  0  0  0  0  0  0  0999 V2000
   30.9224   27.8060   35.7826 C   0  0  0  0  0  0  0  0  0  0  0  0
   33.6315   27.3716   37.0542 O   0  0  0  0  0  0  0  0  0  0  0  0
   32.5251   28.3712   35.3558 C   0  0  0  0  0  0  0  0  0  0  0  0
   34.0697   27.1629   35.6982 O   0  0  0  0  0  0  0  0  0  0  0  0
   32.0566   26.9763   34.9146 C   0  0  0  0  0  0  0  0  0  0  0  0
   31.1312   28.7578   35.7695 O   0  0  0  0  0  0  0  0  0  0  0  0
   31.6106   28.2310   35.8358 C   0  0  0  0  0  0  0  0  0  0  0  0
   32.3725   27.8929   34.2601 N   0  0  0  0  0  0  0  0  0  0  0  0
   31.6719   27.6298   36.6306 C   0  0  0  0  0  0  0  0  0  0  0  0
   32.3606   28.0809   36.3541 N   0  0  0  0  0  0  0  0  0  0  0  0
   32.7656   28.0804   36.2553 C   0  0  0  0  0  0  0  0  0  0  0  0
   33.1358   29.2271   37.7331 C   0  0  0  0  0  0  0  0  0  0  0  0
   30.6961   29.1771   36.1519 N   0  0  0  0  0  0  0  0  0  0  0  0
   31.6718   26.2548   34.8570 C   0  0  0  0  0  0  0  0  0  0  0  0
   32.9984   28.0427   36.3585 N   0  0  0  0  0  0  0  0  0  0  0  0
   31.6798   30.2353   35.8252 C   0  0  0  0  0  0  0  0  0  0  0  0
   31.1431   29.0413   36.0346 N   0  0  0  0  0  0  0  0  0  0  0  0
   32.6695   27.8889   36.0520 C   0  0  0  0  0  0  0  0  0  0  0  0
   33.0302   27.1509   35.8059 O   0  0  0  0  0  0  0  0  0  0  0  0
   32.9610   28.4736   35.2938 P   0  0  0  0  0  0  0  0  0  0  0  0
   31.9372   29.1276   34.7750 O   0  0  0  0  0  0  0  0  0  0  0  0
   32.9333   27.5550   36.2171 O   0  0  0  0  0  0  0  0  0  0  0  0
   32.5302   26.1679   35.2609 O   0  0  0  0  0  0  0  0  0  0  0  0
   32.1099   26.9009   35.4268 N   0  0  0  0  0  0  0  0  0  0  0  0
   32.4289   27.7072   37.4299 P   0  0  0  0  0  0  0  0  0  0  0  0
   31.8353   27.5659   36.0656 O   0  0  0  0  0  0  0  0  0  0  0  0
   32.0623   29.1779   36.5022 O   0  0  0  0  0  0  0  0  0  0  0  0
 11 15  1  0
 11 18  1  0
  6 17  1  0
 10 11  1  0
  3 20  1  0
 18 22  1  0
 10 18  1  0
 15 18  1  0
 13 17  1  0
 15 22  1  0
  5 24  1  0
  9 26  1  0
  6 13  1  0
  7 26  1  0
  1  7  1  0
  5 14  1  0
 23 24  1  0
  9 10  1  0
 14 23  1  0
  7 17  1  0
 14 24  1  0
  3 11  1  0
  7  9  1  0
  4 19  1  0
  9 25  1  0
  3 21  1  0
  5  8  1  0
  3  8  1  0
  2 25  1  0
 16 27  1  0
 20 21  1  0
  8 20  1  0
  5 19  1  0
 13 27  1  0
  2  4  1  0
 12 25  1  0
 20 25  1  0
M  END
$$$$
