
     RDKit          3D

  5  0  0  0  0  0  0  0  0  0999 V2000
   31.9858   -6.0062  -73.1790 O   0  0  0  0  0 15  0  0  0  0  0  0
   33.4008   -6.9216  -71.8724 O   0  0  0  0  0 15  0  0  0  0  0  0
   30.9388   -6.6112  -72.9507 O   0  0  0  0  0 15  0  0  0  0  0  0
   31.1603   -6.2828  -71.9084 C   0  0  0  0  0 15  0  0  0  0  0  0
   29.8683   -7.6570  -72.8261 C   0  0  0  0  0 15  0  0  0  0  0  0
M  END
$$$$
