
     RDKit          3D

 10  0  0  0  0  0  0  0  0  0999 V2000
   60.3536  -44.4103  115.3671 O   0  0  0  0  0 15  0  0  0  0  0  0
   60.1198  -45.7091  114.0056 O   0  0  0  0  0 15  0  0  0  0  0  0
   60.3901  -45.4013  113.7977 C   0  0  0  0  0 15  0  0  0  0  0  0
   59.2274  -46.2939  114.0036 O   0  0  0  0  0 15  0  0  0  0  0  0
   59.9649  -44.7810  113.6006 O   0  0  0  0  0 15  0  0  0  0  0  0
   59.9990  -46.9671  113.2703 O   0  0  0  0  0 15  0  0  0  0  0  0
   60.7312  -47.5684  113.3704 O   0  0  0  0  0 15  0  0  0  0  0  0
   60.7603  -46.0541  112.7033 C   0  0  0  0  0 15  0  0  0  0  0  0
   60.1366  -46.0589  114.0028 O   0  0  0  0  0 15  0  0  0  0  0  0
   60.1918  -46.0717  112.4623 O   0  0  0  0  0 15  0  0  0  0  0  0
M  END
$$$$
