
     RDKit          3D

  6  0  0  0  0  0  0  0  0  0999 V2000
   12.4688    8.5045   32.6830 O   0  0  0  0  0 15  0  0  0  0  0  0
   11.4177    8.7062   34.4618 O   0  0  0  0  0 15  0  0  0  0  0  0
   11.9587    7.5296   34.0076 O   0  0  0  0  0 15  0  0  0  0  0  0
   13.0393    9.9945   34.5641 O   0  0  0  0  0 15  0  0  0  0  0  0
   12.3745    8.2535   32.8546 O   0  0  0  0  0 15  0  0  0  0  0  0
   13.6977    8.6329   33.0032 O   0  0  0  0  0 15  0  0  0  0  0  0
M  END
$$$$
