
     RDKit          3D

 35 45  0  0  0  0  0  0  0  0999 V2000
  -35.8944   31.4544  -20.9269 N   0  0  0  0  0  0  0  0  0  0  0  0
  -37.6440   31.6164  -20.6673 C   0  0  0  0  0  0  0  0  0  0  0  0
  -37.3709   29.9508  -21.2084 C   0  0  0  0  0  0  0  0  0  0  0  0
  -34.6097   29.8677  -19.5201 C   0  0  0  0  0  0  0  0  0  0  0  0
  -36.7023   30.7577  -20.3720 C   0  0  0  0  0  0  0  0  0  0  0  0
  -36.4061   30.3301  -21.2662 C   0  0  0  0  0  0  0  0  0  0  0  0
  -35.8817   30.4756  -21.9867 C   0  0  0  0  0  0  0  0  0  0  0  0
  -37.3996   29.4110  -23.2428 C   0  0  0  0  0  0  0  0  0  0  0  0
  -35.0356   30.8618  -21.4693 C   0  0  0  0  0  0  0  0  0  0  0  0
  -35.2037   30.0294  -23.0658 N   0  0  0  0  0  0  0  0  0  0  0  0
  -38.2255   29.0088  -20.5942 C   0  0  0  0  0  0  0  0  0  0  0  0
  -37.7678   31.9064  -20.4297 O   0  0  0  0  0  0  0  0  0  0  0  0
  -36.2764   28.9761  -21.7221 C   0  0  0  0  0  0  0  0  0  0  0  0
  -35.0355   30.9134  -23.8622 O   0  0  0  0  0  0  0  0  0  0  0  0
  -37.5143   29.8320  -21.9128 O   0  0  0  0  0  0  0  0  0  0  0  0
  -35.7934   31.9591  -21.6644 C   0  0  0  0  0  0  0  0  0  0  0  0
  -34.6690   32.2550  -23.0782 C   0  0  0  0  0  0  0  0  0  0  0  0
  -35.8011   31.3466  -21.1942 N   0  0  0  0  0  0  0  0  0  0  0  0
  -37.9040   31.7616  -22.9360 C   0  0  0  0  0  0  0  0  0  0  0  0
  -36.4149   31.3134  -20.6837 O   0  0  0  0  0  0  0  0  0  0  0  0
  -36.9194   31.8825  -20.0263 C   0  0  0  0  0  0  0  0  0  0  0  0
  -35.9751   29.8191  -21.5779 C   0  0  0  0  0  0  0  0  0  0  0  0
  -36.4918   30.2465  -19.5627 C   0  0  0  0  0  0  0  0  0  0  0  0
  -35.0113   30.4272  -21.8409 C   0  0  0  0  0  0  0  0  0  0  0  0
  -37.0884   29.6574  -21.4835 O   0  0  0  0  0  0  0  0  0  0  0  0
  -37.5286   29.9631  -20.9724 C   0  0  0  0  0  0  0  0  0  0  0  0
  -35.0422   33.1984  -22.8865 C   0  0  0  0  0  0  0  0  0  0  0  0
  -35.6672   29.3908  -22.1406 C   0  0  0  0  0  0  0  0  0  0  0  0
  -38.5403   31.1443  -19.4215 C   0  0  0  0  0  0  0  0  0  0  0  0
  -34.7698   30.6178  -20.2368 C   0  0  0  0  0  0  0  0  0  0  0  0
  -36.2337   31.3637  -22.0208 C   0  0  0  0  0  0  0  0  0  0  0  0
  -36.1281   31.1293  -20.4337 F   0  0  0  0  0  0  0  0  0  0  0  0
  -36.6356   29.8982  -20.9558 C   0  0  0  0  0  0  0  0  0  0  0  0
  -36.8415   30.2737  -20.2318 Cl  0  0  0  0  0  0  0  0  0  0  0  0
  -37.5772   30.5406  -20.9462 C   0  0  0  0  0  0  0  0  0  0  0  0
  3 26  1  0
  1 18  1  0
  2 12  1  0
 20 32  1  0
  3 25  1  0
  5 34  1  0
  9 24  1  0
  6 33  1  0
 26 35  1  0
  1 20  1  0
 15 25  1  0
  3 35  1  0
  3 15  1  0
  6 22  1  0
 22 28  1  0
 16 18  1  0
  7 22  1  0
 16 31  1  0
 13 28  1  0
  7 24  1  0
 26 33  1  0
  1 16  1  0
  6  7  1  0
 13 22  1  0
 18 31  1  0
 12 21  1  0
  7 31  1  0
  5 23  1  0
  2 21  1  0
 17 27  1  0
  5  6  1  0
  5 33  1  0
  4 30  1  0
  2 35  1  0
 33 35  1  0
 10 14  1  0
 10 28  1  0
 11 26  1  0
 24 28  1  0
  9 30  1  0
 10 24  1  0
  9 16  1  0
  9 31  1  0
 14 17  1  0
  2 29  1  0
M  END
$$$$
