
     RDKit          3D

 21 29  0  0  0  0  0  0  0  0999 V2000
   12.5530   -0.6243   33.0788 C   0  0  0  0  0  0  0  0  0  0  0  0
   11.7534    0.6773   31.9402 C   0  0  0  0  0  0  0  0  0  0  0  0
   12.7167    1.3399   31.4922 C   0  0  0  0  0  0  0  0  0  0  0  0
   11.9048    0.2039   31.4651 C   0  0  0  0  0  0  0  0  0  0  0  0
   12.5433   -0.6394   30.6136 C   0  0  0  0  0  0  0  0  0  0  0  0
   12.9545    0.0420   33.6792 C   0  0  0  0  0  0  0  0  0  0  0  0
   11.2628   -1.8641   31.6876 C   0  0  0  0  0  0  0  0  0  0  0  0
   11.4076    3.2057   32.6557 C   0  0  0  0  0  0  0  0  0  0  0  0
   12.0033   -1.4464   32.8882 C   0  0  0  0  0  0  0  0  0  0  0  0
   13.5814    0.4279   33.0864 S   0  0  0  0  0  0  0  0  0  0  0  0
   12.1701   -0.2639   32.5229 C   0  0  0  0  0  0  0  0  0  0  0  0
   13.0652    1.0547   32.6122 N   0  0  0  0  0  0  0  0  0  0  0  0
   13.3135    1.2149   33.7093 C   0  0  0  0  0  0  0  0  0  0  0  0
   12.4335   -0.5863   32.6843 N   0  0  0  0  0  0  0  0  0  0  0  0
   11.4563    0.2420   32.1654 O   0  0  0  0  0  0  0  0  0  0  0  0
   13.6893    1.8778   32.8837 O   0  0  0  0  0  0  0  0  0  0  0  0
   11.3002    1.7798   32.3066 C   0  0  0  0  0  0  0  0  0  0  0  0
   12.7472    0.0404   31.3616 O   0  0  0  0  0  0  0  0  0  0  0  0
   12.2221    0.3122   31.7939 P   0  0  0  0  0  0  0  0  0  0  0  0
   12.7632    1.3106   33.1091 O   0  0  0  0  0  0  0  0  0  0  0  0
   11.6967   -2.6097   33.7947 O   0  0  0  0  0  0  0  0  0  0  0  0
  1 14  1  0
 11 14  1  0
  4 19  1  0
  2 15  1  0
  2 19  1  0
 12 20  1  0
  2  4  1  0
 18 19  1  0
  1 11  1  0
 13 20  1  0
  4 15  1  0
  4 18  1  0
 11 19  1  0
 10 12  1  0
  6 10  1  0
  1  6  1  0
  9 14  1  0
  1  9  1  0
 10 13  1  0
 12 16  1  0
 13 16  1  0
  3 19  1  0
  2 11  1  0
  6 13  1  0
  7  9  1  0
  8 17  1  0
  9 21  1  0
  3 17  1  0
  3 10  1  0
M  END
$$$$
