
     RDKit          3D

 29 41  0  0  0  0  0  0  0  0999 V2000
   31.4690    4.2367   -6.4835 C   0  0  0  0  0  0  0  0  0  0  0  0
   32.9566    3.9148   -5.6351 C   0  0  0  0  0  0  0  0  0  0  0  0
   31.6318    3.0944   -6.8748 O   0  0  0  0  0  0  0  0  0  0  0  0
   32.9878    2.8077   -6.6353 N   0  0  0  0  0  0  0  0  0  0  0  0
   32.2588    0.8366   -6.5472 C   0  0  0  0  0  0  0  0  0  0  0  0
   30.8585    3.2454   -8.1476 C   0  0  0  0  0  0  0  0  0  0  0  0
   33.8096    1.5865   -5.5174 C   0  0  0  0  0  0  0  0  0  0  0  0
   32.1301    3.8935   -5.7056 O   0  0  0  0  0  0  0  0  0  0  0  0
   30.7235    2.1919   -5.5823 O   0  0  0  0  0  0  0  0  0  0  0  0
   31.6631    4.0003   -7.0248 C   0  0  0  0  0  0  0  0  0  0  0  0
   30.6717    1.5972   -8.5088 P   0  0  0  0  0  0  0  0  0  0  0  0
   32.0865    4.3620   -6.0047 O   0  0  0  0  0  0  0  0  0  0  0  0
   32.0944    3.9092   -5.6362 O   0  0  0  0  0  0  0  0  0  0  0  0
   29.3009    2.0931   -6.2433 C   0  0  0  0  0  0  0  0  0  0  0  0
   30.6137    3.9935   -7.5973 C   0  0  0  0  0  0  0  0  0  0  0  0
   30.4894    2.9667   -7.0691 N   0  0  0  0  0  0  0  0  0  0  0  0
   31.9450    3.1088   -7.3283 C   0  0  0  0  0  0  0  0  0  0  0  0
   32.9528    5.6177   -6.2218 C   0  0  0  0  0  0  0  0  0  0  0  0
   33.1492    3.0365   -7.1769 C   0  0  0  0  0  0  0  0  0  0  0  0
   32.2908    4.1245   -5.6791 C   0  0  0  0  0  0  0  0  0  0  0  0
   33.1420    2.7565   -5.0971 C   0  0  0  0  0  0  0  0  0  0  0  0
   33.1644    3.0726   -4.8756 C   0  0  0  0  0  0  0  0  0  0  0  0
   32.6346    4.8241   -6.7686 C   0  0  0  0  0  0  0  0  0  0  0  0
   31.7303    1.7832   -8.7081 C   0  0  0  0  0  0  0  0  0  0  0  0
   30.9200    2.9353   -7.1919 C   0  0  0  0  0  0  0  0  0  0  0  0
   33.1460    4.3056   -6.1837 C   0  0  0  0  0  0  0  0  0  0  0  0
   31.8496    2.9549   -5.0009 C   0  0  0  0  0  0  0  0  0  0  0  0
   31.2159    1.6944   -6.2090 C   0  0  0  0  0  0  0  0  0  0  0  0
   33.0756    3.6220   -6.6166 C   0  0  0  0  0  0  0  0  0  0  0  0
  8 20  1  0
 13 20  1  0
 21 22  1  0
 16 25  1  0
 12 20  1  0
  3 17  1  0
  8 12  1  0
  4 19  1  0
  1 10  1  0
  2 20  1  0
  2 26  1  0
  3 25  1  0
 26 29  1  0
 19 29  1  0
  4 29  1  0
  2 13  1  0
 23 26  1  0
  9 28  1  0
  6 15  1  0
 10 17  1  0
  6 25  1  0
 18 23  1  0
  2 29  1  0
 17 25  1  0
 11 24  1  0
 15 16  1  0
  6 16  1  0
 10 15  1  0
 17 19  1  0
 10 23  1  0
 21 27  1  0
 22 27  1  0
 18 26  1  0
  1 23  1  0
  5 28  1  0
  7 21  1  0
  1 15  1  0
  9 27  1  0
  4 21  1  0
  6 11  1  0
  7 22  1  0
M  END
$$$$
