
     RDKit          3D

 15 17  0  0  0  0  0  0  0  0999 V2000
  -23.7849  -34.4888   39.1202 N   0  0  0  0  0  0  0  0  0  0  0  0
  -24.9901  -33.6216   40.9804 C   0  0  0  0  0  0  0  0  0  0  0  0
  -24.2365  -33.2058   40.7996 C   0  0  0  0  0  0  0  0  0  0  0  0
  -23.5765  -32.6288   39.3532 C   0  0  0  0  0  0  0  0  0  0  0  0
  -26.4259  -35.5572   39.9001 O   0  0  0  0  0  0  0  0  0  0  0  0
  -23.5343  -35.8649   38.9268 C   0  0  0  0  0  0  0  0  0  0  0  0
  -23.4968  -34.4569   38.5821 C   0  0  0  0  0  0  0  0  0  0  0  0
  -23.1172  -34.1744   40.6402 C   0  0  0  0  0  0  0  0  0  0  0  0
  -23.6137  -31.9222   40.1204 C   0  0  0  0  0  0  0  0  0  0  0  0
  -23.4617  -34.7686   39.0274 C   0  0  0  0  0  0  0  0  0  0  0  0
  -24.1052  -33.3101   41.3716 O   0  0  0  0  0  0  0  0  0  0  0  0
  -22.4405  -32.6092   39.5000 P   0  0  0  0  0  0  0  0  0  0  0  0
  -22.5957  -32.8088   39.6604 O   0  0  0  0  0  0  0  0  0  0  0  0
  -23.2855  -36.0771   40.6408 O   0  0  0  0  0  0  0  0  0  0  0  0
  -25.9658  -33.1219   38.0902 O   0  0  0  0  0  0  0  0  0  0  0  0
 12 13  1  0
  1 10  1  0
  7 10  1  0
  3 11  1  0
  1  7  1  0
  2  3  1  0
  2 11  1  0
  4 13  1  0
  4  9  1  0
  6 10  1  0
  4 12  1  0
  1  6  1  0
  6  7  1  0
  3  8  1  0
  9 12  1  0
  3  9  1  0
  8 12  1  0
M  END
$$$$
