
     RDKit          3D

 11  0  0  0  0  0  0  0  0  0999 V2000
    4.1193   26.7483   12.1073 C   0  0  0  0  0 15  0  0  0  0  0  0
    2.6837   25.1994   12.7203 O   0  0  0  0  0 15  0  0  0  0  0  0
    2.7054   25.2115   12.0282 C   0  0  0  0  0 15  0  0  0  0  0  0
    4.3955   27.3144   13.2439 O   0  0  0  0  0 15  0  0  0  0  0  0
    3.4664   26.6917   10.6857 C   0  0  0  0  0 15  0  0  0  0  0  0
    2.5560   25.7298   12.1845 O   0  0  0  0  0 15  0  0  0  0  0  0
    3.6888   25.7417   11.6364 C   0  0  0  0  0 15  0  0  0  0  0  0
    2.6092   25.9685   11.0664 O   0  0  0  0  0 15  0  0  0  0  0  0
    2.9982   25.8069   12.7297 C   0  0  0  0  0 15  0  0  0  0  0  0
    2.6718   25.8206   11.8654 C   0  0  0  0  0 15  0  0  0  0  0  0
    4.2411   27.0018   11.2583 C   0  0  0  0  0 15  0  0  0  0  0  0
M  END
$$$$
