
     RDKit          3D

  6  0  0  0  0  0  0  0  0  0999 V2000
   32.9938   59.1971   34.1793 O   0  0  0  0  0 15  0  0  0  0  0  0
   33.7663   60.4182   33.7151 O   0  0  0  0  0 15  0  0  0  0  0  0
   34.5224   58.7243   34.1828 O   0  0  0  0  0 15  0  0  0  0  0  0
   35.4987   59.3617   33.3638 C   0  0  0  0  0 15  0  0  0  0  0  0
   34.0490   57.4996   33.5718 C   0  0  0  0  0 15  0  0  0  0  0  0
   34.9383   58.6475   33.2870 C   0  0  0  0  0 15  0  0  0  0  0  0
M  END
$$$$
