
     RDKit          3D

 11  0  0  0  0  0  0  0  0  0999 V2000
   11.9872   15.3029   34.0923 C   0  0  0  0  0 15  0  0  0  0  0  0
   11.5432   14.5525   35.4503 O   0  0  0  0  0 15  0  0  0  0  0  0
   10.9342   15.7297   34.2676 O   0  0  0  0  0 15  0  0  0  0  0  0
   11.7930   15.7928   34.5577 C   0  0  0  0  0 15  0  0  0  0  0  0
   11.7879   16.1785   36.2484 O   0  0  0  0  0 15  0  0  0  0  0  0
   10.6694   15.6356   36.7227 O   0  0  0  0  0 15  0  0  0  0  0  0
   12.5833   16.7176   34.8188 C   0  0  0  0  0 15  0  0  0  0  0  0
   11.1283   16.0665   35.7699 C   0  0  0  0  0 15  0  0  0  0  0  0
   11.6014   15.1056   33.9486 C   0  0  0  0  0 15  0  0  0  0  0  0
   12.9740   13.7949   34.8259 C   0  0  0  0  0 15  0  0  0  0  0  0
   11.9672   13.6975   35.7014 C   0  0  0  0  0 15  0  0  0  0  0  0
M  END
$$$$
