
     RDKit          3D

 26 38  0  0  0  0  0  0  0  0999 V2000
   45.3517   13.6253   18.0144 C   0  0  0  0  0  0  0  0  0  0  0  0
   43.8129   13.3620   15.7817 C   0  0  0  0  0  0  0  0  0  0  0  0
   44.8594   12.9238   15.8961 C   0  0  0  0  0  0  0  0  0  0  0  0
   42.7386   11.3492   17.0377 N   0  0  0  0  0  0  0  0  0  0  0  0
   45.8015   14.4513   16.2398 N   0  0  0  0  0  0  0  0  0  0  0  0
   45.7876   12.1793   15.5936 C   0  0  0  0  0  0  0  0  0  0  0  0
   44.1830   11.3096   17.4890 C   0  0  0  0  0  0  0  0  0  0  0  0
   44.4751   12.3988   16.2117 C   0  0  0  0  0  0  0  0  0  0  0  0
   43.1780   12.0818   16.0281 C   0  0  0  0  0  0  0  0  0  0  0  0
   43.9452   11.0273   16.9911 N   0  0  0  0  0  0  0  0  0  0  0  0
   43.7990   12.9373   15.0805 C   0  0  0  0  0  0  0  0  0  0  0  0
   45.6485   10.1797   18.3440 S   0  0  0  0  0  0  0  0  0  0  0  0
   43.8687   11.9005   17.7854 C   0  0  0  0  0  0  0  0  0  0  0  0
   43.5204   12.6854   15.6048 C   0  0  0  0  0  0  0  0  0  0  0  0
   43.5564   12.8770   17.1688 N   0  0  0  0  0  0  0  0  0  0  0  0
   44.2167   12.6692   16.8074 O   0  0  0  0  0  0  0  0  0  0  0  0
   44.3935   13.4153   17.4663 C   0  0  0  0  0  0  0  0  0  0  0  0
   44.0484   13.6204   15.9477 N   0  0  0  0  0  0  0  0  0  0  0  0
   43.9354   11.6485   15.3678 Cl  0  0  0  0  0  0  0  0  0  0  0  0
   44.5925   14.2926   17.0533 C   0  0  0  0  0  0  0  0  0  0  0  0
   47.5829   12.3530   16.2778 C   0  0  0  0  0  0  0  0  0  0  0  0
   44.5706   12.1842   16.7391 C   0  0  0  0  0  0  0  0  0  0  0  0
   44.6801   12.4944   16.2890 Cl  0  0  0  0  0  0  0  0  0  0  0  0
   43.5415   13.0678   16.0010 C   0  0  0  0  0  0  0  0  0  0  0  0
   45.5194   13.5364   17.9755 C   0  0  0  0  0  0  0  0  0  0  0  0
   44.6013   13.5118   17.0833 C   0  0  0  0  0  0  0  0  0  0  0  0
  1 25  1  0
  8 23  1  0
  2 18  1  0
 17 26  1  0
  2 24  1  0
 14 24  1  0
  8 22  1  0
 16 22  1  0
  7 10  1  0
 11 14  1  0
  8 16  1  0
  3  8  1  0
  7 13  1  0
 18 24  1  0
  2 14  1  0
 20 26  1  0
  9 14  1  0
  2 11  1  0
 11 24  1  0
 17 20  1  0
 15 17  1  0
  3 18  1  0
  9 19  1  0
  1 17  1  0
  3 22  1  0
 10 13  1  0
 13 15  1  0
  1 26  1  0
  7 22  1  0
 15 26  1  0
  3  6  1  0
  4 10  1  0
  4  9  1  0
  1 20  1  0
  9 11  1  0
  4 13  1  0
  5 20  1  0
  7 12  1  0
M  END
$$$$
