
     RDKit          3D

 11  0  0  0  0  0  0  0  0  0999 V2000
   34.9956   17.7463   37.7457 C   0  0  0  0  0 15  0  0  0  0  0  0
   33.8692   17.0314   37.5374 O   0  0  0  0  0 15  0  0  0  0  0  0
   36.7582   17.8623   35.6942 O   0  0  0  0  0 15  0  0  0  0  0  0
   34.7029   19.1470   35.1825 C   0  0  0  0  0 15  0  0  0  0  0  0
   34.4392   18.8595   37.2619 O   0  0  0  0  0 15  0  0  0  0  0  0
   34.7751   18.3386   37.9374 O   0  0  0  0  0 15  0  0  0  0  0  0
   36.2122   17.5171   35.6497 O   0  0  0  0  0 15  0  0  0  0  0  0
   33.9479   17.4940   36.6440 C   0  0  0  0  0 15  0  0  0  0  0  0
   36.7049   18.2320   35.9827 C   0  0  0  0  0 15  0  0  0  0  0  0
   33.9029   17.8626   37.6858 O   0  0  0  0  0 15  0  0  0  0  0  0
   36.3352   17.2945   36.9606 O   0  0  0  0  0 15  0  0  0  0  0  0
M  END
$$$$
