
     RDKit          3D

 19 27  0  0  0  0  0  0  0  0999 V2000
   -0.1721   22.5931  -32.9881 C   0  0  0  0  0  0  0  0  0  0  0  0
   -0.0035   22.5226  -31.7894 O   0  0  0  0  0  0  0  0  0  0  0  0
    0.4132   23.4094  -31.5677 C   0  0  0  0  0  0  0  0  0  0  0  0
    0.9789   21.9230  -32.4876 C   0  0  0  0  0  0  0  0  0  0  0  0
   -0.0755   21.5330  -31.4987 C   0  0  0  0  0  0  0  0  0  0  0  0
   -0.4816   22.3950  -30.8588 C   0  0  0  0  0  0  0  0  0  0  0  0
   -2.7090   22.3437  -33.9815 C   0  0  0  0  0  0  0  0  0  0  0  0
   -0.4233   22.2885  -31.5033 C   0  0  0  0  0  0  0  0  0  0  0  0
   -0.5163   21.1711  -30.5462 O   0  0  0  0  0  0  0  0  0  0  0  0
   -0.9595   21.6058  -32.5793 O   0  0  0  0  0  0  0  0  0  0  0  0
    0.2312   21.9430  -28.7986 C   0  0  0  0  0  0  0  0  0  0  0  0
   -0.6848   23.1290  -31.6923 C   0  0  0  0  0  0  0  0  0  0  0  0
   -0.2686   22.8391  -32.8347 C   0  0  0  0  0  0  0  0  0  0  0  0
    0.5907   21.7801  -32.5298 C   0  0  0  0  0  0  0  0  0  0  0  0
   -0.3523   23.7055  -32.0980 C   0  0  0  0  0  0  0  0  0  0  0  0
    0.8722   22.6268  -31.6250 C   0  0  0  0  0  0  0  0  0  0  0  0
    1.3646   23.1960  -30.3274 C   0  0  0  0  0  0  0  0  0  0  0  0
    0.7761   21.7586  -31.9925 C   0  0  0  0  0  0  0  0  0  0  0  0
    0.3774   22.5622  -32.6641 O   0  0  0  0  0  0  0  0  0  0  0  0
  1 13  1  0
  4 14  1  0
  2  8  1  0
  4 18  1  0
 14 18  1  0
  1 19  1  0
  6  8  1  0
 13 19  1  0
 12 15  1  0
  5  8  1  0
  2 16  1  0
  8 12  1  0
  3 16  1  0
 16 18  1  0
  3 15  1  0
  5 18  1  0
  5  9  1  0
  4 16  1  0
  6 12  1  0
  3 12  1  0
 13 15  1  0
  5  6  1  0
  1 14  1  0
  6  9  1  0
  1 10  1  0
 13 14  1  0
  3 17  1  0
M  END
$$$$
