
     RDKit          3D

  8  0  0  0  0  0  0  0  0  0999 V2000
  -25.4185   35.5626  -47.5732 O   0  0  0  0  0 15  0  0  0  0  0  0
  -25.3739   35.3069  -45.2940 C   0  0  0  0  0 15  0  0  0  0  0  0
  -25.8157   34.7288  -47.4053 C   0  0  0  0  0 15  0  0  0  0  0  0
  -24.5277   35.3842  -44.9812 O   0  0  0  0  0 15  0  0  0  0  0  0
  -25.8923   35.1749  -46.2243 O   0  0  0  0  0 15  0  0  0  0  0  0
  -25.2876   35.5192  -46.5096 O   0  0  0  0  0 15  0  0  0  0  0  0
  -24.6757   35.1988  -46.2620 O   0  0  0  0  0 15  0  0  0  0  0  0
  -25.5189   34.3035  -47.2433 C   0  0  0  0  0 15  0  0  0  0  0  0
M  END
$$$$
