
     RDKit          3D

 57 90  0  0  0  0  0  0  0  0999 V2000
    5.8969  -40.5051    0.7375 C   0  0  0  0  0  0  0  0  0  0  0  0
    3.9566  -40.0842    4.2635 C   0  0  0  0  0  0  0  0  0  0  0  0
    3.3329  -37.2646    3.0493 C   0  0  0  0  0  0  0  0  0  0  0  0
    4.9620  -38.3655    3.1822 C   0  0  0  0  0  0  0  0  0  0  0  0
    4.6322  -39.8931    0.4598 C   0  0  0  0  0  0  0  0  0  0  0  0
    5.7476  -38.2765    1.5885 C   0  0  0  0  0  0  0  0  0  0  0  0
    3.3081  -38.4204    3.6332 C   0  0  0  0  0  0  0  0  0  0  0  0
    3.4633  -39.0923    3.7254 C   0  0  0  0  0  0  0  0  0  0  0  0
    2.3796  -40.5043    2.9079 C   0  0  0  0  0  0  0  0  0  0  0  0
    5.3726  -40.8047    2.6792 C   0  0  0  0  0  0  0  0  0  0  0  0
    5.0367  -37.9004    4.3270 C   0  0  0  0  0  0  0  0  0  0  0  0
    4.9215  -38.8132    2.2470 C   0  0  0  0  0  0  0  0  0  0  0  0
    3.2873  -39.1232    2.4013 C   0  0  0  0  0  0  0  0  0  0  0  0
    3.4811  -38.0134    3.7998 C   0  0  0  0  0  0  0  0  0  0  0  0
    4.3800  -39.4917    3.2562 C   0  0  0  0  0  0  0  0  0  0  0  0
    4.1271  -39.5067    3.7639 C   0  0  0  0  0  0  0  0  0  0  0  0
    4.6872  -39.2163    3.2684 C   0  0  0  0  0  0  0  0  0  0  0  0
    5.1159  -40.5266    1.7626 C   0  0  0  0  0  0  0  0  0  0  0  0
    4.7117  -38.9287    4.1298 C   0  0  0  0  0  0  0  0  0  0  0  0
    4.0093  -39.3546    1.7007 C   0  0  0  0  0  0  0  0  0  0  0  0
    3.7885  -38.3472    4.4480 C   0  0  0  0  0  0  0  0  0  0  0  0
    2.7528  -39.0324    2.5408 C   0  0  0  0  0  0  0  0  0  0  0  0
    4.9942  -38.6403    0.9289 C   0  0  0  0  0  0  0  0  0  0  0  0
    4.3434  -38.6054    2.5605 C   0  0  0  0  0  0  0  0  0  0  0  0
    5.5615  -40.6705    2.6982 C   0  0  0  0  0  0  0  0  0  0  0  0
    6.5928  -38.9029    3.0291 C   0  0  0  0  0  0  0  0  0  0  0  0
    5.3120  -39.9000    2.7963 C   0  0  0  0  0  0  0  0  0  0  0  0
    1.9259  -40.4505    2.9154 C   0  0  0  0  0  0  0  0  0  0  0  0
    4.7360  -36.9044    4.0244 C   0  0  0  0  0  0  0  0  0  0  0  0
    5.1676  -38.5343    2.8293 N   0  0  0  0  0  0  0  0  0  0  0  0
    4.8975  -40.2661    3.1563 O   0  0  0  0  0  0  0  0  0  0  0  0
    4.1198  -40.9115    2.7083 O   0  0  0  0  0  0  0  0  0  0  0  0
    4.6526  -39.0993    2.0972 O   0  0  0  0  0  0  0  0  0  0  0  0
    5.7078  -38.8264    2.7137 O   0  0  0  0  0  0  0  0  0  0  0  0
    4.0628  -38.9397    1.9333 O   0  0  0  0  0  0  0  0  0  0  0  0
    3.7709  -41.3726    4.7574 O   0  0  0  0  0  0  0  0  0  0  0  0
    3.9053  -38.9843    1.6111 O   0  0  0  0  0  0  0  0  0  0  0  0
    5.1581  -38.5822    3.7369 O   0  0  0  0  0  0  0  0  0  0  0  0
    6.1078  -39.2919    1.9135 C   0  0  0  0  0  0  0  0  0  0  0  0
    4.9155  -37.7564    2.6653 C   0  0  0  0  0  0  0  0  0  0  0  0
    3.4894  -38.5365    4.6892 C   0  0  0  0  0  0  0  0  0  0  0  0
    5.4207  -37.9945    3.1162 C   0  0  0  0  0  0  0  0  0  0  0  0
    4.7344  -38.4085    2.3952 C   0  0  0  0  0  0  0  0  0  0  0  0
    3.9807  -38.0682    2.8683 C   0  0  0  0  0  0  0  0  0  0  0  0
    6.1967  -41.2595    3.9020 C   0  0  0  0  0  0  0  0  0  0  0  0
    2.5796  -42.0494    2.7005 C   0  0  0  0  0  0  0  0  0  0  0  0
    5.8323  -37.8067    4.4450 C   0  0  0  0  0  0  0  0  0  0  0  0
    5.3140  -38.6759    3.5647 O   0  0  0  0  0  0  0  0  0  0  0  0
    3.9378  -39.5443    3.7262 C   0  0  0  0  0  0  0  0  0  0  0  0
    4.2972  -39.1491    2.5605 O   0  0  0  0  0  0  0  0  0  0  0  0
    5.2919  -36.8016    2.1289 C   0  0  0  0  0  0  0  0  0  0  0  0
    3.8353  -37.7498    1.7139 O   0  0  0  0  0  0  0  0  0  0  0  0
    4.9703  -37.8067    1.9669 C   0  0  0  0  0  0  0  0  0  0  0  0
    4.3661  -39.7426    4.4387 O   0  0  0  0  0  0  0  0  0  0  0  0
    6.2921  -40.1455    1.6019 C   0  0  0  0  0  0  0  0  0  0  0  0
    4.2093  -39.3052    2.1923 C   0  0  0  0  0  0  0  0  0  0  0  0
    5.0160  -39.2605    1.5340 C   0  0  0  0  0  0  0  0  0  0  0  0
 16 49  1  0
 10 25  1  0
 38 48  1  0
 35 37  1  0
 20 37  1  0
 50 56  1  0
 15 17  1  0
 12 33  1  0
 21 41  1  0
  4 30  1  0
  9 28  1  0
 24 43  1  0
 12 43  1  0
 35 56  1  0
  7 14  1  0
 33 56  1  0
 20 56  1  0
 24 50  1  0
 13 22  1  0
  2 54  1  0
 15 16  1  0
  4 42  1  0
  4 48  1  0
 30 34  1  0
 30 43  1  0
  4 38  1  0
 15 49  1  0
  8 49  1  0
 27 31  1  0
 12 24  1  0
  7  8  1  0
 40 53  1  0
 24 44  1  0
 40 42  1  0
 40 43  1  0
 16 54  1  0
  2 49  1  0
  2 16  1  0
 14 21  1  0
 11 47  1  0
 25 27  1  0
 12 57  1  0
 10 31  1  0
 23 57  1  0
 17 19  1  0
 10 27  1  0
 39 55  1  0
 26 34  1  0
  7 21  1  0
  6 53  1  0
 10 18  1  0
 40 44  1  0
  1 55  1  0
 20 57  1  0
 14 41  1  0
 13 20  1  0
 17 27  1  0
 18 25  1  0
  3 44  1  0
 14 44  1  0
  6 23  1  0
 51 53  1  0
  7 41  1  0
 11 29  1  0
  8 21  1  0
 15 19  1  0
 11 19  1  0
  8 41  1  0
  6 39  1  0
 39 57  1  0
 52 53  1  0
 18 55  1  0
 11 42  1  0
 26 39  1  0
  1 18  1  0
  5 23  1  0
  2 19  1  0
 42 47  1  0
 25 55  1  0
  1  5  1  0
 29 47  1  0
  3 52  1  0
  9 22  1  0
  9 46  1  0
  6 51  1  0
 13 17  1  0
 22 28  1  0
  9 13  1  0
 28 46  1  0
  3 29  1  0
M  END
$$$$
