
     RDKit          3D

  9  0  0  0  0  0  0  0  0  0999 V2000
  -23.3450    9.7082   -2.3934 O   0  0  0  0  0 15  0  0  0  0  0  0
  -24.4319   10.2470   -3.1165 O   0  0  0  0  0 15  0  0  0  0  0  0
  -24.0089   11.7771   -2.3179 O   0  0  0  0  0 15  0  0  0  0  0  0
  -24.7456   10.6265   -1.1447 O   0  0  0  0  0 15  0  0  0  0  0  0
  -23.2618   10.6598   -2.9545 C   0  0  0  0  0 15  0  0  0  0  0  0
  -23.4384    9.3351   -2.2988 O   0  0  0  0  0 15  0  0  0  0  0  0
  -25.1269    9.6661   -1.8147 O   0  0  0  0  0 15  0  0  0  0  0  0
  -23.4981    9.9343   -1.0782 C   0  0  0  0  0 15  0  0  0  0  0  0
  -23.4241   11.2347   -1.9074 C   0  0  0  0  0 15  0  0  0  0  0  0
M  END
$$$$
