
     RDKit          3D

  5  0  0  0  0  0  0  0  0  0999 V2000
   -2.1295   76.1219    4.9255 O   0  0  0  0  0 15  0  0  0  0  0  0
   -3.2716   77.0880    5.8221 O   0  0  0  0  0 15  0  0  0  0  0  0
   -1.7956   77.0669    6.2098 C   0  0  0  0  0 15  0  0  0  0  0  0
   -2.8963   76.4038    5.6944 O   0  0  0  0  0 15  0  0  0  0  0  0
   -1.5094   75.4298    7.1424 C   0  0  0  0  0 15  0  0  0  0  0  0
M  END
$$$$
