
     RDKit          3D

  8  0  0  0  0  0  0  0  0  0999 V2000
  -22.1452   -5.6549    2.8080 O   0  0  0  0  0 15  0  0  0  0  0  0
  -21.5396   -3.2414    2.5542 O   0  0  0  0  0 15  0  0  0  0  0  0
  -20.6188   -5.3632    2.3475 O   0  0  0  0  0 15  0  0  0  0  0  0
  -22.4643   -5.0231    4.4068 O   0  0  0  0  0 15  0  0  0  0  0  0
  -20.1613   -3.7466    2.5159 O   0  0  0  0  0 15  0  0  0  0  0  0
  -19.8221   -4.4275    3.2857 C   0  0  0  0  0 15  0  0  0  0  0  0
  -20.1794   -6.4356    4.0073 C   0  0  0  0  0 15  0  0  0  0  0  0
  -20.5592   -5.5577    4.1132 C   0  0  0  0  0 15  0  0  0  0  0  0
M  END
$$$$
