
     RDKit          3D

  8  0  0  0  0  0  0  0  0  0999 V2000
    4.5485    1.2001    1.6706 O   0  0  0  0  0 15  0  0  0  0  0  0
    4.4749    0.1251   -0.4688 O   0  0  0  0  0 15  0  0  0  0  0  0
    4.6917    1.2332   -0.4110 O   0  0  0  0  0 15  0  0  0  0  0  0
    6.8794    1.2243    0.4972 O   0  0  0  0  0 15  0  0  0  0  0  0
    6.4229    0.4563    0.8000 C   0  0  0  0  0 15  0  0  0  0  0  0
    5.3945    0.6628    1.7194 C   0  0  0  0  0 15  0  0  0  0  0  0
    5.7280   -0.1822    1.6157 C   0  0  0  0  0 15  0  0  0  0  0  0
    5.1417   -0.3650    1.1388 O   0  0  0  0  0 15  0  0  0  0  0  0
M  END
$$$$
