
     RDKit          3D

 25 34  0  0  0  0  0  0  0  0999 V2000
   23.1055   30.8160  -12.7896 C   0  0  0  0  0  0  0  0  0  0  0  0
   20.7266   30.0584  -14.6576 C   0  0  0  0  0  0  0  0  0  0  0  0
   22.6313   28.3192  -15.5260 C   0  0  0  0  0  0  0  0  0  0  0  0
   23.3754   31.1879  -14.2192 N   0  0  0  0  0  0  0  0  0  0  0  0
   24.4619   29.1606  -16.3776 C   0  0  0  0  0  0  0  0  0  0  0  0
   22.6537   29.5184  -14.3687 C   0  0  0  0  0  0  0  0  0  0  0  0
   22.6420   30.7458  -12.9847 C   0  0  0  0  0  0  0  0  0  0  0  0
   22.3202   28.2606  -16.3571 C   0  0  0  0  0  0  0  0  0  0  0  0
   23.1559   31.1524  -17.0418 C   0  0  0  0  0  0  0  0  0  0  0  0
   23.1837   29.5243  -13.8545 C   0  0  0  0  0  0  0  0  0  0  0  0
   23.5318   31.0932  -13.8744 C   0  0  0  0  0  0  0  0  0  0  0  0
   24.6471   30.3303  -14.0137 S   0  0  0  0  0  0  0  0  0  0  0  0
   24.0069   31.7041  -13.6854 N   0  0  0  0  0  0  0  0  0  0  0  0
   22.6490   28.7503  -12.0449 C   0  0  0  0  0  0  0  0  0  0  0  0
   24.6685   30.7404  -13.5753 N   0  0  0  0  0  0  0  0  0  0  0  0
   24.8239   29.2547  -13.2108 C   0  0  0  0  0  0  0  0  0  0  0  0
   22.6845   29.1576  -12.8509 N   0  0  0  0  0  0  0  0  0  0  0  0
   24.0144   30.9127  -14.4869 O   0  0  0  0  0  0  0  0  0  0  0  0
   25.4698   31.3018  -13.4300 C   0  0  0  0  0  0  0  0  0  0  0  0
   23.1349   29.7549  -13.8994 C   0  0  0  0  0  0  0  0  0  0  0  0
   23.8053   28.9552  -13.5300 N   0  0  0  0  0  0  0  0  0  0  0  0
   23.8495   30.3479  -14.5183 C   0  0  0  0  0  0  0  0  0  0  0  0
   22.6099   29.5235  -14.1648 S   0  0  0  0  0  0  0  0  0  0  0  0
   23.3743   30.7415  -14.0174 O   0  0  0  0  0  0  0  0  0  0  0  0
   21.6193   30.4673  -13.5830 O   0  0  0  0  0  0  0  0  0  0  0  0
  6 23  1  0
 10 20  1  0
  4 11  1  0
 11 24  1  0
  4 24  1  0
  1  7  1  0
 18 22  1  0
 12 15  1  0
 20 23  1  0
 10 23  1  0
  6 20  1  0
  6 10  1  0
  4 18  1  0
 11 13  1  0
  3  8  1  0
 10 21  1  0
 14 17  1  0
 12 22  1  0
 15 19  1  0
 11 22  1  0
 20 21  1  0
 16 21  1  0
 13 15  1  0
  7 25  1  0
 12 16  1  0
 17 23  1  0
 12 19  1  0
  2 25  1  0
  6 22  1  0
 13 19  1  0
  7 17  1  0
  7 23  1  0
  3 23  1  0
  1 12  1  0
M  END
$$$$
