
     RDKit          3D

  9  0  0  0  0  0  0  0  0  0999 V2000
   51.4078   14.7137   82.0174 O   0  0  0  0  0 15  0  0  0  0  0  0
   54.6730   13.5935   81.2839 O   0  0  0  0  0 15  0  0  0  0  0  0
   52.2699   14.5409   79.3495 O   0  0  0  0  0 15  0  0  0  0  0  0
   53.8602   14.9388   81.1218 O   0  0  0  0  0 15  0  0  0  0  0  0
   52.5045   14.0918   80.6846 C   0  0  0  0  0 15  0  0  0  0  0  0
   52.6245   14.3630   83.2025 O   0  0  0  0  0 15  0  0  0  0  0  0
   51.5509   14.0420   81.9448 C   0  0  0  0  0 15  0  0  0  0  0  0
   52.4457   14.3634   81.4466 O   0  0  0  0  0 15  0  0  0  0  0  0
   53.0042   13.3132   81.1907 C   0  0  0  0  0 15  0  0  0  0  0  0
M  END
$$$$
