
     RDKit          3D

  8  0  0  0  0  0  0  0  0  0999 V2000
  -20.2121   17.5668  -26.7892 O   0  0  0  0  0 15  0  0  0  0  0  0
  -20.4011   17.5634  -28.0303 O   0  0  0  0  0 15  0  0  0  0  0  0
  -23.4443   19.0860  -26.9632 O   0  0  0  0  0 15  0  0  0  0  0  0
  -23.2058   17.8243  -27.8586 O   0  0  0  0  0 15  0  0  0  0  0  0
  -20.0252   16.8995  -27.5832 O   0  0  0  0  0 15  0  0  0  0  0  0
  -21.1869   18.8604  -29.2765 O   0  0  0  0  0 15  0  0  0  0  0  0
  -21.2402   17.6121  -27.6304 C   0  0  0  0  0 15  0  0  0  0  0  0
  -22.7654   18.1744  -26.8776 O   0  0  0  0  0 15  0  0  0  0  0  0
M  END
$$$$
