
     RDKit          3D

  5  0  0  0  0  0  0  0  0  0999 V2000
   16.6568   -8.2613    7.1571 O   0  0  0  0  0 15  0  0  0  0  0  0
   17.6753   -8.7574    7.5950 O   0  0  0  0  0 15  0  0  0  0  0  0
   17.9450   -8.7325    5.8966 O   0  0  0  0  0 15  0  0  0  0  0  0
   16.7155   -9.3716    6.6235 C   0  0  0  0  0 15  0  0  0  0  0  0
   18.3267  -10.1871    6.5390 C   0  0  0  0  0 15  0  0  0  0  0  0
M  END
$$$$
