
     RDKit          3D

 32 43  0  0  0  0  0  0  0  0999 V2000
   -5.6831  -53.1237  -18.9704 C   0  0  0  0  0  0  0  0  0  0  0  0
   -7.8773  -53.1286  -18.9315 O   0  0  0  0  0  0  0  0  0  0  0  0
   -7.2211  -52.6455  -19.0756 C   0  0  0  0  0  0  0  0  0  0  0  0
   -6.9223  -53.0167  -19.0083 O   0  0  0  0  0  0  0  0  0  0  0  0
   -5.3668  -52.5324  -20.1688 C   0  0  0  0  0  0  0  0  0  0  0  0
   -7.4301  -53.5508  -18.4521 O   0  0  0  0  0  0  0  0  0  0  0  0
   -6.9423  -53.0343  -19.5481 C   0  0  0  0  0  0  0  0  0  0  0  0
   -6.0969  -53.3762  -16.6300 N   0  0  0  0  0  0  0  0  0  0  0  0
   -6.5147  -53.9288  -17.3949 C   0  0  0  0  0  0  0  0  0  0  0  0
   -5.8261  -53.4181  -17.5177 N   0  0  0  0  0  0  0  0  0  0  0  0
   -5.7171  -53.9487  -18.9955 C   0  0  0  0  0  0  0  0  0  0  0  0
   -5.9741  -52.3513  -18.8591 C   0  0  0  0  0  0  0  0  0  0  0  0
   -6.4018  -54.2108  -16.6572 O   0  0  0  0  0  0  0  0  0  0  0  0
   -6.4699  -52.5681  -19.2830 N   0  0  0  0  0  0  0  0  0  0  0  0
   -5.9674  -52.8103  -19.0655 C   0  0  0  0  0  0  0  0  0  0  0  0
   -4.5905  -54.8672  -17.7019 N   0  0  0  0  0  0  0  0  0  0  0  0
   -5.2960  -52.4676  -17.9613 N   0  0  0  0  0  0  0  0  0  0  0  0
   -6.0172  -53.0676  -19.3340 C   0  0  0  0  0  0  0  0  0  0  0  0
   -6.6129  -52.3294  -20.4557 C   0  0  0  0  0  0  0  0  0  0  0  0
   -8.5097  -53.2198  -18.5153 O   0  0  0  0  0  0  0  0  0  0  0  0
   -7.3887  -53.1401  -18.2699 P   0  0  0  0  0  0  0  0  0  0  0  0
   -5.7858  -52.6267  -19.3277 O   0  0  0  0  0  0  0  0  0  0  0  0
   -7.4125  -53.6727  -18.1072 O   0  0  0  0  0  0  0  0  0  0  0  0
   -7.3592  -53.0193  -18.7232 O   0  0  0  0  0  0  0  0  0  0  0  0
   -7.3278  -54.3394  -17.3703 P   0  0  0  0  0  0  0  0  0  0  0  0
   -5.1661  -52.2629  -18.1290 O   0  0  0  0  0  0  0  0  0  0  0  0
   -7.1367  -54.8099  -18.1480 O   0  0  0  0  0  0  0  0  0  0  0  0
   -4.7056  -52.3140  -19.0712 C   0  0  0  0  0  0  0  0  0  0  0  0
   -6.8899  -52.9573  -18.9977 P   0  0  0  0  0  0  0  0  0  0  0  0
   -7.3238  -53.2826  -18.3562 O   0  0  0  0  0  0  0  0  0  0  0  0
   -8.1345  -53.1972  -18.6797 O   0  0  0  0  0  0  0  0  0  0  0  0
   -6.0654  -54.0825  -19.2046 O   0  0  0  0  0  0  0  0  0  0  0  0
 21 30  1  0
 17 26  1  0
  6 30  1  0
  6 23  1  0
  2 31  1  0
 15 22  1  0
 15 18  1  0
 20 31  1  0
 11 32  1  0
  1 15  1  0
  3 29  1  0
 21 24  1  0
  3  4  1  0
  1 18  1  0
 18 22  1  0
 12 15  1  0
  4 24  1  0
 21 23  1  0
  7 29  1  0
 14 29  1  0
  3  7  1  0
 14 18  1  0
 12 14  1  0
  2 20  1  0
  9 13  1  0
  1 11  1  0
  1 12  1  0
  9 10  1  0
  8 13  1  0
 21 29  1  0
  9 25  1  0
 25 27  1  0
  8 10  1  0
  3 21  1  0
  8  9  1  0
 26 28  1  0
 12 29  1  0
 10 17  1  0
  7 19  1  0
 17 28  1  0
  5 19  1  0
  5 28  1  0
  7 32  1  0
M  END
$$$$
