
     RDKit          3D

 26 34  0  0  0  0  0  0  0  0999 V2000
   10.1930    2.4790   26.2237 C   0  0  0  0  0  0  0  0  0  0  0  0
    7.6678    3.4420   25.6948 N   0  0  0  0  0  0  0  0  0  0  0  0
    9.4529    2.0472   25.7756 C   0  0  0  0  0  0  0  0  0  0  0  0
    8.0366    1.9013   24.6307 C   0  0  0  0  0  0  0  0  0  0  0  0
    9.3985    2.5379   23.0456 C   0  0  0  0  0  0  0  0  0  0  0  0
    9.1243    3.3253   25.7121 C   0  0  0  0  0  0  0  0  0  0  0  0
    8.1906    1.3013   24.5405 C   0  0  0  0  0  0  0  0  0  0  0  0
    9.3494    2.8669   25.8107 C   0  0  0  0  0  0  0  0  0  0  0  0
    8.2849    4.3216   25.8088 N   0  0  0  0  0  0  0  0  0  0  0  0
    9.3649    2.0371   25.8639 C   0  0  0  0  0  0  0  0  0  0  0  0
    7.9288    3.6938   24.8309 C   0  0  0  0  0  0  0  0  0  0  0  0
    9.4467    3.4773   25.2119 C   0  0  0  0  0  0  0  0  0  0  0  0
   10.2277    3.8817   26.5926 C   0  0  0  0  0  0  0  0  0  0  0  0
    9.3361    2.9512   25.2632 C   0  0  0  0  0  0  0  0  0  0  0  0
    7.6136    2.9665   27.3767 C   0  0  0  0  0  0  0  0  0  0  0  0
    9.1669    3.4089   25.3982 N   0  0  0  0  0  0  0  0  0  0  0  0
    6.5234    2.8903   25.3922 C   0  0  0  0  0  0  0  0  0  0  0  0
    8.4444    3.6194   25.3985 C   0  0  0  0  0  0  0  0  0  0  0  0
    9.8391    2.8881   24.9709 C   0  0  0  0  0  0  0  0  0  0  0  0
    9.5235    3.4321   25.7402 C   0  0  0  0  0  0  0  0  0  0  0  0
    9.4073    2.4756   23.2419 C   0  0  0  0  0  0  0  0  0  0  0  0
   10.4163    1.9830   27.5556 N   0  0  0  0  0  0  0  0  0  0  0  0
   10.1206    1.0723   24.1907 C   0  0  0  0  0  0  0  0  0  0  0  0
    8.0144    4.3217   25.2100 C   0  0  0  0  0  0  0  0  0  0  0  0
    8.5447    2.0651   26.5347 N   0  0  0  0  0  0  0  0  0  0  0  0
    9.2411    3.6903   26.2209 C   0  0  0  0  0  0  0  0  0  0  0  0
  3 10  1  0
  5 21  1  0
  6 16  1  0
 12 16  1  0
  6 20  1  0
 16 20  1  0
  6  8  1  0
 12 20  1  0
 12 14  1  0
  8 14  1  0
 14 19  1  0
  8 20  1  0
  6 12  1  0
  4  7  1  0
  9 24  1  0
 11 24  1  0
 11 18  1  0
  3  8  1  0
  9 18  1  0
 18 24  1  0
  2 18  1  0
  2 11  1  0
  1  3  1  0
  1 10  1  0
  3 14  1  0
 10 25  1  0
  2 24  1  0
 13 26  1  0
  9 11  1  0
 10 19  1  0
  1 19  1  0
  1 22  1  0
 15 25  1  0
 19 26  1  0
M  END
$$$$
