
     RDKit          3D

  6  0  0  0  0  0  0  0  0  0999 V2000
  -25.0737    3.6170  -32.6474 O   0  0  0  0  0 15  0  0  0  0  0  0
  -24.4011    2.6283  -33.8972 C   0  0  0  0  0 15  0  0  0  0  0  0
  -24.6717    1.6512  -32.0573 O   0  0  0  0  0 15  0  0  0  0  0  0
  -24.3692    4.6305  -33.2818 O   0  0  0  0  0 15  0  0  0  0  0  0
  -24.7669    2.8837  -34.0065 O   0  0  0  0  0 15  0  0  0  0  0  0
  -24.1736    1.9504  -33.8637 C   0  0  0  0  0 15  0  0  0  0  0  0
M  END
$$$$
