
     RDKit          3D

  6  6  0  0  0  0  0  0  0  0999 V2000
   47.9180   55.2020   -0.2350 C   0  0  0  0  0  0  0  0  0  0  0  0
   46.1790   53.5810   -0.1700 C   0  0  0  0  0  0  0  0  0  0  0  0
   47.4250   55.1110   -1.6830 C   0  0  0  0  0  0  0  0  0  0  0  0
   46.6980   52.8700   -1.4240 C   0  0  0  0  0  0  0  0  0  0  0  0
   47.2530   54.2180    0.5570 O   0  0  0  0  0  0  0  0  0  0  0  0
   47.6040   53.7640   -2.0970 O   0  0  0  0  0  0  0  0  0  0  0  0
  1  3  1  0
  1  5  1  0
  2  4  1  0
  2  5  1  0
  3  6  1  0
  4  6  1  0
M  END
$$$$
