
     RDKit          3D

 11 11  0  0  0  0  0  0  0  0999 V2000
   32.0890   -7.8800  -73.1010 C   0  0  0  0  0  0  0  0  0  0  0  0
   31.5230   -7.7910  -71.9050 N   0  0  0  0  0  0  0  0  0  0  0  0
   31.5360   -6.6730  -71.2000 C   0  0  0  0  0  0  0  0  0  0  0  0
   32.1600   -5.5520  -71.7170 C   0  0  0  0  0  0  0  0  0  0  0  0
   32.7760   -5.6010  -72.9870 C   0  0  0  0  0  0  0  0  0  0  0  0
   32.7360   -6.8130  -73.7030 C   0  0  0  0  0  0  0  0  0  0  0  0
   33.5640   -4.1890  -73.6430 Cl  0  0  0  0  0  0  0  0  0  0  0  0
   31.5620  -11.6350  -73.6820 C   0  0  0  0  0  0  0  0  0  0  0  0
   31.6480  -10.3800  -73.0380 N   0  0  0  0  0  0  0  0  0  0  0  0
   32.0050   -9.2140  -73.8070 C   0  0  0  0  0  0  0  0  0  0  0  0
   32.2320   -9.3220  -75.0070 O   0  0  0  0  0  0  0  0  0  0  0  0
  1  2  2  0
  1  6  1  0
  1 10  1  0
  2  3  1  0
  3  4  2  0
  4  5  1  0
  5  6  2  0
  5  7  1  0
  8  9  1  0
  9 10  1  0
 10 11  2  0
M  END
$$$$
