
     RDKit          3D

  6  5  0  0  0  0  0  0  0  0999 V2000
   13.9550  -60.3260    1.9930 O   0  0  0  0  0  0  0  0  0  0  0  0
   14.6940  -59.9400    1.0960 C   0  0  0  0  0  0  0  0  0  0  0  0
   13.6050  -60.9250   -0.8390 O   0  0  0  0  0  0  0  0  0  0  0  0
   14.8440  -60.7850   -0.1620 C   0  0  0  0  0  0  0  0  0  0  0  0
   15.4490  -58.1710    2.5780 O   0  0  0  0  0  0  0  0  0  0  0  0
   15.4140  -58.5940    1.2100 C   0  0  0  0  0  0  0  0  0  0  0  0
  1  2  2  0
  2  4  1  0
  2  6  1  0
  3  4  1  0
  5  6  1  0
M  END
$$$$
