
     RDKit          3D

 25 26  0  0  0  0  0  0  0  0999 V2000
   34.8340  -36.1350    6.5420 C   0  0  0  0  0  0  0  0  0  0  0  0
   36.1480  -40.1350    7.3400 C   0  0  0  0  0  0  0  0  0  0  0  0
   34.2590  -38.3210    7.7320 S   0  0  0  0  0  0  0  0  0  0  0  0
   34.7740  -38.2370    5.1910 N   0  0  0  0  0  0  0  0  0  0  0  0
   34.6720  -39.8210    7.0970 C   0  0  0  0  0  0  0  0  0  0  0  0
   34.3810  -39.7050    5.5680 C   0  0  0  0  0  0  0  0  0  0  0  0
   34.1250  -37.3880    6.3940 C   0  0  0  0  0  0  0  0  0  0  0  0
   33.8140  -40.9160    7.6820 C   0  0  0  0  0  0  0  0  0  0  0  0
   36.0850  -40.2490    4.1700 O   0  0  0  0  0  0  0  0  0  0  0  0
   35.0730  -40.5960    4.8250 C   0  0  0  0  0  0  0  0  0  0  0  0
   34.5690  -41.7290    4.6050 O   0  0  0  0  0  0  0  0  0  0  0  0
   33.5850  -34.3960    5.4020 O   0  0  0  0  0  0  0  0  0  0  0  0
   35.1690  -35.3430    4.2780 O   0  0  0  0  0  0  0  0  0  0  0  0
   34.5840  -35.1760    5.3900 C   0  0  0  0  0  0  0  0  0  0  0  0
   34.3820  -35.4950    7.7600 N   0  0  0  0  0  0  0  0  0  0  0  0
   35.1870  -34.5600    8.4760 C   0  0  0  0  0  0  0  0  0  0  0  0
   36.1440  -34.0380    7.9640 O   0  0  0  0  0  0  0  0  0  0  0  0
   35.2800  -32.9840   10.2890 N   0  0  0  0  0  0  0  0  0  0  0  0
   34.8430  -34.3390    9.9390 C   0  0  0  0  0  0  0  0  0  0  0  0
   35.4540  -35.4810   10.7720 C   0  0  0  0  0  0  0  0  0  0  0  0
   34.6300  -36.2980   11.5430 C   0  0  0  0  0  0  0  0  0  0  0  0
   35.1770  -37.3040   12.3390 C   0  0  0  0  0  0  0  0  0  0  0  0
   36.5520  -37.4950   12.3740 C   0  0  0  0  0  0  0  0  0  0  0  0
   37.3800  -36.6760   11.6080 C   0  0  0  0  0  0  0  0  0  0  0  0
   36.8280  -35.6620   10.8180 C   0  0  0  0  0  0  0  0  0  0  0  0
  1  7  1  0
  1 14  1  0
  1 15  1  0
  2  5  1  0
  3  5  1  0
  3  7  1  0
  4  6  1  0
  4  7  1  0
  5  6  1  0
  5  8  1  0
  6 10  1  0
  9 10  2  0
 10 11  1  0
 12 14  2  0
 13 14  1  0
 15 16  1  0
 16 17  2  0
 16 19  1  0
 18 19  1  0
 19 20  1  0
 20 21  2  0
 20 25  1  0
 21 22  1  0
 22 23  2  0
 23 24  1  0
 24 25  2  0
M  END
$$$$
